geometry optimzed in LAMMPS
_audit_creation_date              2020-12-01 
_audit_creation_method            'lammps2cif' 
_symmetry_space_group_name_H-M    'P1' 
_symmetry_Int_Tables_number       1 
_symmetry_cell_setting            triclinic 
loop_ 
_symmetry_equiv_pos_as_xyz 
  x,y,z 
_cell_length_a                    46.196183 
_cell_length_b                    46.17140491818544 
_cell_length_c                    46.17665850276397 
_cell_angle_alpha                 90.34430102549278 
_cell_angle_beta                  89.91274115048861 
_cell_angle_gamma                 89.92476198873838 
loop_ 
_atom_site_label 
_atom_site_type_symbol 
_atom_site_fract_x 
_atom_site_fract_y 
_atom_site_fract_z 
_atom_site_charge 
N1          N  0.78640182  0.27986010  0.53601238    -0.28000
N2          N  0.81159648  0.28665978  0.54786678    -0.35800
C3          C  0.80936953  0.28725062  0.57677696     0.00400
C4          C  0.78138135  0.28060798  0.58481016     0.06400
C5          C  0.76730459  0.27574604  0.55818048    -0.06700
H6          H  0.82733165  0.29227599  0.59090029     0.07000
H7          H  0.74478067  0.27009848  0.55524673     0.08200
Cu8        Cu  0.84921877  0.29778369  0.52701669     0.44200
Cu9        Cu  0.78151461  0.27788692  0.48927284     0.42000
Cu10       Cu  0.85127417  0.29705837  0.45390702     0.43900
N11         N  0.88268054  0.31731436  0.50541872    -0.35400
N12         N  0.88348018  0.31716971  0.47697187    -0.29600
C13         C  0.90301042  0.33664160  0.46792042    -0.05700
C14         C  0.91503936  0.35001509  0.49210339     0.06500
C15         C  0.90167142  0.33683448  0.51553416     0.00300
H16         H  0.90586978  0.34254778  0.44548580     0.07900
H17         H  0.90300122  0.34318432  0.53806111     0.07000
N18         N  0.81435857  0.28578532  0.43192600    -0.36800
N19         N  0.78859350  0.27942669  0.44280053    -0.29000
C20         C  0.77025341  0.27584696  0.41992280    -0.04200
C21         C  0.78541417  0.28072156  0.39394450     0.04400
C22         C  0.81320263  0.28663622  0.40298648     0.02500
H23         H  0.74745921  0.27092118  0.42195285     0.07600
H24         H  0.83165601  0.29166238  0.38949713     0.06400
N25         N  0.55659217  0.79594021  0.27327808    -0.28000
N26         N  0.56686762  0.82225510  0.27819787    -0.35800
C27         C  0.59582115  0.82209067  0.27816569     0.00400
C28         C  0.60573769  0.79438827  0.27297185     0.06400
C29         C  0.58003828  0.77815931  0.26968217    -0.06700
H30         H  0.60869916  0.84138373  0.28130475     0.07000
H31         H  0.57864766  0.75518287  0.26520417     0.08200
Cu32       Cu  0.54381220  0.85938724  0.28557894     0.44200
Cu33       Cu  0.50983255  0.78889958  0.27232041     0.42000
Cu34       Cu  0.47208506  0.86059629  0.27448178     0.43900
N35         N  0.52007483  0.89482141  0.29773605    -0.35400
N36         N  0.49198595  0.89549232  0.29341843    -0.29600
C37         C  0.48030055  0.91676754  0.30960384    -0.05700
C38         C  0.50237671  0.93012934  0.32509023     0.06500
C39         C  0.52737295  0.91568078  0.31661989     0.00300
H40         H  0.45725685  0.91985874  0.31233785     0.07900
H41         H  0.54860563  0.91743776  0.32628776     0.07000
N42         N  0.45150390  0.82155436  0.27006474    -0.36800
N43         N  0.46293955  0.79522008  0.27132336    -0.29000
C44         C  0.44034286  0.77614260  0.27129699    -0.04200
C45         C  0.41414252  0.79163113  0.26962416     0.04400
C46         C  0.42258599  0.82008569  0.26879040     0.02500
H47         H  0.44268252  0.75284285  0.27190335     0.07600
H48         H  0.40847178  0.83879304  0.26803350     0.06400
N49         N  0.25309578  0.45803014  0.79752892    -0.28000
N50         N  0.26377591  0.44767616  0.82196116    -0.35800
C51         C  0.26513706  0.41876592  0.82092738     0.00400
C52         C  0.25485243  0.40915492  0.79462756     0.06400
C53         C  0.24702942  0.43478464  0.78021323    -0.06700
H54         H  0.27301347  0.40570133  0.83860665     0.07000
H55         H  0.23817387  0.43631927  0.75860544     0.08200
Cu56       Cu  0.27816157  0.47037723  0.85718449     0.44200
Cu57       Cu  0.24951146  0.50437903  0.79106978     0.42000
Cu58       Cu  0.27621186  0.54310646  0.85698034     0.43900
N59         N  0.29809042  0.49328161  0.88944200    -0.35400
N60         N  0.29745806  0.52171441  0.88940198    -0.29600
C61         C  0.31662643  0.53182833  0.90875925    -0.05700
C62         C  0.33028783  0.50833450  0.92158028     0.06500
C63         C  0.31761863  0.48418118  0.90880876     0.00300
H64         H  0.32208834  0.55447995  0.91101671     0.07900
H65         H  0.32398592  0.46178124  0.91107299     0.07000
N66         N  0.26150728  0.56324369  0.82038204    -0.36800
N67         N  0.25231767  0.55106299  0.79598608    -0.29000
C68         C  0.24672237  0.57295699  0.77710743    -0.04200
C69         C  0.25286149  0.59952153  0.79067234     0.04400
C70         C  0.26201423  0.59213256  0.81786218     0.02500
H71         H  0.23908682  0.56987772  0.75517428     0.07600
H72         H  0.26917091  0.60684170  0.83471404     0.06400
N73         N  0.22562538  0.30156306  0.05240419    -0.28000
N74         N  0.22121499  0.32779764  0.06331721    -0.35800
C75         C  0.22183726  0.32726510  0.09229786     0.00400
C76         C  0.22690973  0.29940390  0.10158937     0.06400
C77         C  0.22948223  0.28350037  0.07545808    -0.06700
H78         H  0.21878252  0.34635714  0.10561353     0.07000
H79         H  0.23337350  0.26046432  0.07352269     0.08200
Cu80       Cu  0.21230115  0.36515935  0.04135624     0.44200
Cu81       Cu  0.22482461  0.29445798  0.00541351     0.42000
Cu82       Cu  0.21291225  0.36495854  0.96873481     0.43900
N83         N  0.19525263  0.39946829  0.01926355    -0.35400
N84         N  0.19548655  0.39947807  0.99081933    -0.29600
C85         C  0.17618190  0.41893049  0.98125801    -0.05700
C86         C  0.16270802  0.43163580  0.00508860     0.06500
C87         C  0.17588355  0.41893316  0.02887789     0.00300
H88         H  0.16960707  0.42045096  0.95886087     0.07900
H89         H  0.16939727  0.42070011  0.05130828     0.07000
N90         N  0.21823236  0.32628660  0.94724014    -0.36800
N91         N  0.22175714  0.30014937  0.95839856    -0.29000
C92         C  0.22224121  0.28110491  0.93557737    -0.04200
C93         C  0.21844600  0.29627878  0.90936081     0.04400
C94         C  0.21622564  0.32474096  0.91835286     0.02500
H95         H  0.22480978  0.25793451  0.93776464     0.07600
H96         H  0.21335702  0.34358396  0.90488273     0.06400
N97         N  0.28255419  0.05295621  0.22073451    -0.28000
N98         N  0.29038451  0.06404339  0.19548922    -0.35800
C99         C  0.28758506  0.09293887  0.19595923     0.00400
C100        C  0.27768481  0.10171479  0.22272853     0.06400
C101        C  0.27486872  0.07569046  0.23819998    -0.06700
H102        H  0.29264331  0.10675433  0.17779840     0.07000
H103        H  0.26705099  0.07352418  0.26017108     0.08200
Cu104      Cu  0.30531707  0.04222707  0.15951265     0.44200
Cu105      Cu  0.28210394  0.00623340  0.22747302     0.42000
Cu106      Cu  0.30209015  0.96896711  0.15899750     0.43900
N107        N  0.32146899  0.01901093  0.12499394    -0.35400
N108        N  0.32000264  0.99059064  0.12467699    -0.29600
C109        C  0.33540266  0.98026456  0.10219576    -0.05700
C110        C  0.34741633  0.00355842  0.08754725     0.06500
C111        C  0.33782866  0.02785138  0.10270960     0.00300
H112        H  0.33931233  0.95747459  0.09838831     0.07900
H113        H  0.34413291  0.05013011  0.09944998     0.07000
N114        N  0.28971769  0.94785754  0.19599002    -0.36800
N115        N  0.28333613  0.95932459  0.22159732    -0.29000
C116        C  0.27785351  0.93676255  0.23984103    -0.04200
C117        C  0.28060378  0.91043073  0.22448088     0.04400
C118        C  0.28820062  0.91892750  0.19699401     0.02500
H119        H  0.27168756  0.93920911  0.26233145     0.07600
H120        H  0.29277535  0.90488882  0.17870238     0.06400
N121        N  0.76589823  0.71978329  0.54431146    -0.28000
N122        N  0.76755400  0.69322197  0.55499101    -0.35800
C123        C  0.76867483  0.69417123  0.58395608     0.00400
C124        C  0.76756876  0.72253538  0.59315443     0.06400
C125        C  0.76542848  0.73839991  0.56735027    -0.06700
H126        H  0.77044775  0.67516286  0.59742385     0.07000
H127        H  0.76454662  0.76173184  0.56555351     0.08200
Cu128      Cu  0.77170055  0.65459290  0.53314437     0.44200
Cu129      Cu  0.76651635  0.72788517  0.49798623     0.42000
Cu130      Cu  0.77599703  0.65744189  0.46192800     0.43900
N131        N  0.78808704  0.61973487  0.51081948    -0.35400
N132        N  0.78985742  0.62103671  0.48249464    -0.29600
C133        C  0.80898840  0.60132022  0.47293281    -0.05700
C134        C  0.82029995  0.58693493  0.49670194     0.06500
C135        C  0.80602597  0.59905178  0.52040555     0.00300
H136        H  0.81703785  0.60073145  0.45094744     0.07900
H137        H  0.81112855  0.59616743  0.54303101     0.07000
N138        N  0.77268073  0.69578021  0.44055588    -0.36800
N139        N  0.76979434  0.72221991  0.45136487    -0.29000
C140        C  0.77011895  0.74079309  0.42839076    -0.04200
C141        C  0.77329748  0.72473963  0.40247166     0.04400
C142        C  0.77506206  0.69653798  0.41180631     0.02500
H143        H  0.76803981  0.76406726  0.43024469     0.07600
H144        H  0.77857494  0.67735806  0.39872624     0.06400
N145        N  0.22309668  0.71979661  0.05456639    -0.28000
N146        N  0.19833441  0.71134054  0.06633711    -0.35800
C147        C  0.19986567  0.71258262  0.09526603     0.00400
C148        C  0.22680432  0.72223034  0.10347587     0.06400
C149        C  0.24130824  0.72647121  0.07695934    -0.06700
H150        H  0.18214767  0.70694052  0.10950351     0.07000
H151        H  0.26302683  0.73476886  0.07428586     0.08200
Cu152      Cu  0.16123435  0.69804120  0.04581155     0.44200
Cu153      Cu  0.22782838  0.72255123  0.00752278     0.42000
Cu154      Cu  0.15864428  0.70158643  0.97316751     0.43900
N155        N  0.12628821  0.68155009  0.02390650    -0.35400
N156        N  0.12542219  0.68287210  0.99551968    -0.29600
C157        C  0.10322061  0.66693566  0.98571773    -0.05700
C158        C  0.08931138  0.65472586  0.00934490     0.06500
C159        C  0.10458084  0.66475352  0.03330008     0.00300
H160        H  0.09922680  0.66271016  0.96302572     0.07900
H161        H  0.10171447  0.65865742  0.05567888     0.07000
N162        N  0.19371867  0.71634797  0.95065321    -0.36800
N163        N  0.21960759  0.72321357  0.96089953    -0.29000
C164        C  0.23630127  0.73038778  0.93754538    -0.04200
C165        C  0.21958719  0.72824506  0.91209226     0.04400
C166        C  0.19298716  0.71922663  0.92184145     0.02500
H167        H  0.25865296  0.73720767  0.93888667     0.07600
H168        H  0.17415912  0.71450492  0.90873323     0.06400
O169        O  0.97690695  0.46062473  0.02305569    -0.73600
O170        O  0.01015511  0.54031941  0.02715781    -0.74600
O171        O  0.95334676  0.51707761  0.02375595    -0.63200
O172        O  0.03359203  0.48414245  0.02611429    -0.71700
O173        O  0.03589299  0.48588582  0.97817785    -0.71200
O174        O  0.95586750  0.51862098  0.97581433    -0.62500
O175        O  0.01232921  0.54203955  0.97920200    -0.75000
O176        O  0.97933249  0.46203661  0.97511537    -0.73700
Cu177      Cu  0.99338670  0.50047283  0.02669274     1.04600
Cu178      Cu  0.99587921  0.50214140  0.97540400     1.04300
C179        C  0.97261663  0.44876286  0.99839113     0.92600
C180        C  0.01705330  0.55357625  0.00395955     0.91700
C181        C  0.94193223  0.52311358  0.99932342     0.83800
C182        C  0.04765208  0.48033153  0.00253248     0.90100
N183        N  0.71368166  0.96258124  0.23440343    -0.28000
N184        N  0.68814733  0.95093401  0.22847067    -0.35800
C185        C  0.68977017  0.92204881  0.22845613     0.00400
C186        C  0.71768928  0.91353114  0.23426564     0.06400
C187        C  0.73245137  0.94000790  0.23839356    -0.06700
H188        H  0.67147350  0.90825067  0.22373484     0.07000
H189        H  0.75526117  0.94252203  0.24300798     0.08200
Cu190      Cu  0.65088905  0.97057989  0.21504587     0.44200
Cu191      Cu  0.71925692  0.00967663  0.23479314     0.42000
Cu192      Cu  0.65061742  0.04169142  0.20941890     0.43900
N193        N  0.61887037  0.98990596  0.19148199    -0.35400
N194        N  0.61891568  0.01822657  0.18931848    -0.29600
C195        C  0.59950023  0.02631186  0.16941106    -0.05700
C196        C  0.58650427  0.00155911  0.15826112     0.06500
C197        C  0.59942987  0.97876750  0.17291746     0.00300
H198        H  0.59697578  0.04833331  0.16198897     0.07900
H199        H  0.59651888  0.95583612  0.16907675     0.07000
N200        N  0.68523422  0.06550041  0.22319209    -0.36800
N201        N  0.71103064  0.05623700  0.23147479    -0.29000
C202        C  0.72764693  0.08040307  0.23574766    -0.04200
C203        C  0.71120307  0.10547484  0.22954773     0.04400
C204        C  0.68454616  0.09439070  0.22203245     0.02500
H205        H  0.75011503  0.07989587  0.24227715     0.07600
H206        H  0.66551098  0.10623118  0.21547084     0.06400
O207        O  0.51879876  0.02374180  0.03865285    -0.73600
O208        O  0.48880846  0.02670972  0.95779826    -0.74600
O209        O  0.46334963  0.02516380  0.01331922    -0.63200
O210        O  0.54434808  0.02528344  0.98325517    -0.71700
O211        O  0.54407937  0.97729004  0.98100202    -0.71200
O212        O  0.46302410  0.97714068  0.01219688    -0.62500
O213        O  0.48806194  0.97870387  0.95609696    -0.75000
O214        O  0.51916695  0.97572207  0.03701581    -0.73700
Cu215      Cu  0.50384361  0.02685687  0.99830386     1.04600
Cu216      Cu  0.50355201  0.97550035  0.99648996     1.04300
C217        C  0.52403884  0.99941515  0.05058529     0.92600
C218        C  0.48337364  0.00318527  0.94419619     0.91700
C219        C  0.45043812  0.00118456  0.01790570     0.83800
C220        C  0.55704086  0.00140756  0.97721060     0.90100
N221        N  0.77626708  0.27863160  0.03412198    -0.28000
N222        N  0.80333356  0.27950045  0.04356333    -0.35800
C223        C  0.80408475  0.27771534  0.07244420     0.00400
C224        C  0.77634270  0.27572765  0.08317777     0.06400
C225        C  0.75897154  0.27647463  0.05808120    -0.06700
H226        H  0.82383298  0.27948945  0.08486945     0.07000
H227        H  0.73557918  0.27575440  0.05745169     0.08200
Cu228      Cu  0.84025087  0.28899285  0.02085373     0.44200
Cu229      Cu  0.76682267  0.28147303  0.98785974     0.42000
Cu230      Cu  0.83284548  0.30633108  0.95105313     0.43900
N231        N  0.87235878  0.31180449  0.00046582    -0.35400
N232        N  0.86923549  0.31849482  0.97303871    -0.29600
C233        C  0.88953072  0.33771998  0.96548455    -0.05700
C234        C  0.90623074  0.34384580  0.98966580     0.06500
C235        C  0.89468391  0.32683830  0.01153857     0.00300
H236        H  0.89000679  0.34863484  0.94483302     0.07900
H237        H  0.90036255  0.32714489  0.03424637     0.07000
N238        N  0.79586525  0.29488950  0.92966879    -0.36800
N239        N  0.77110058  0.28592614  0.94096875    -0.29000
C240        C  0.75303171  0.28009132  0.91823889    -0.04200
C241        C  0.76770161  0.28543697  0.89200943     0.04400
C242        C  0.79453788  0.29484700  0.90073509     0.02500
H243        H  0.73133582  0.27159584  0.92044697     0.07600
H244        H  0.81237592  0.30099991  0.88686936     0.06400
C245        C  0.74485531  0.74223007  0.26331865     0.44800
H246        H  0.73087947  0.72770836  0.27634960    -0.04300
C247        C  0.77664347  0.77653188  0.23241542     0.44800
H248        H  0.78981421  0.79101842  0.21859166    -0.04300
C249        C  0.72963189  0.77115506  0.25619425    -0.18000
C250        C  0.77361752  0.75084321  0.27849342    -0.17700
C251        C  0.75351408  0.72885543  0.23391241    -0.18100
C252        C  0.74743069  0.79028455  0.24168520    -0.18100
C253        C  0.79160268  0.76747104  0.26124370    -0.17600
C254        C  0.76874252  0.74775231  0.21655442    -0.18000
N255        N  0.72707591  0.46560745  0.19825470    -0.28000
N256        N  0.72181197  0.45386234  0.17252322    -0.35800
C257        C  0.72283051  0.42487024  0.17409359     0.00400
C258        C  0.72870378  0.41692387  0.20210250     0.06400
C259        C  0.73130897  0.44335534  0.21709791    -0.06700
H260        H  0.71931909  0.41042562  0.15589826     0.07000
H261        H  0.73649866  0.44608557  0.23978317     0.08200
Cu262      Cu  0.71135085  0.47529258  0.13503614     0.44200
Cu263      Cu  0.72885389  0.51233687  0.20403935     0.42000
Cu264      Cu  0.71201918  0.54908673  0.13495084     0.43900
N265        N  0.69321731  0.49803932  0.10149177    -0.35400
N266        N  0.69337784  0.52651000  0.10147625    -0.29600
C267        C  0.67480529  0.53611187  0.08135529    -0.05700
C268        C  0.66194415  0.51230984  0.06808952     0.06500
C269        C  0.67456998  0.48849236  0.08136399     0.00300
H270        H  0.66888166  0.55863032  0.07902516     0.07900
H271        H  0.66851534  0.46600647  0.07901283     0.07000
N272        N  0.72342582  0.57046052  0.17229978    -0.36800
N273        N  0.72933133  0.55896259  0.19783689    -0.29000
C274        C  0.73483766  0.58138624  0.21637535    -0.04200
C275        C  0.73181846  0.60780319  0.20158536     0.04400
C276        C  0.72470748  0.59941539  0.17379349     0.02500
H277        H  0.74037517  0.57879030  0.23896193     0.07600
H278        H  0.72087104  0.61334106  0.15545284     0.06400
C279        C  0.76325372  0.24518513  0.22518278     0.44800
H280        H  0.77749408  0.23032266  0.21264138    -0.04300
C281        C  0.72966091  0.27918214  0.25512949     0.44800
H282        H  0.71548652  0.29328677  0.26855150    -0.04300
C283        C  0.75462793  0.27318001  0.20871066    -0.18000
C284        C  0.73429312  0.23072402  0.23392767    -0.17700
C285        C  0.77707811  0.25548015  0.25384506    -0.18100
C286        C  0.73882631  0.29252099  0.22561959    -0.18100
C287        C  0.71552364  0.24970976  0.24768055    -0.17600
C288        C  0.75834326  0.27152961  0.27077223    -0.18000
N289        N  0.54402429  0.22875719  0.27892533    -0.28000
N290        N  0.55574429  0.21709746  0.30230973    -0.35800
C291        C  0.58464474  0.21744867  0.30051264     0.00400
C292        C  0.59299443  0.22986163  0.27479207     0.06400
C293        C  0.56646251  0.23709787  0.26153244    -0.06700
H294        H  0.59861974  0.20961044  0.31751822     0.07000
H295        H  0.56381971  0.24747435  0.24076260     0.08200
Cu296      Cu  0.53553772  0.20103387  0.33836814     0.44200
Cu297      Cu  0.49700970  0.23166785  0.27426624     0.42000
Cu298      Cu  0.46438035  0.21134853  0.34424974     0.43900
N299        N  0.51419957  0.18683797  0.37457532    -0.35400
N300        N  0.48624959  0.19144898  0.37703575    -0.29600
C301        C  0.47597101  0.17680157  0.39982528    -0.05700
C302        C  0.49881842  0.16197744  0.41242112     0.06500
C303        C  0.52285352  0.16912892  0.39581930     0.00300
H304        H  0.45322953  0.17519844  0.40511663     0.07900
H305        H  0.54434677  0.15993249  0.39718938     0.07000
N306        N  0.44087774  0.22324708  0.30879701    -0.36800
N307        N  0.45045393  0.23010568  0.28267955    -0.29000
C308        C  0.42652263  0.23520820  0.26603336    -0.04200
C309        C  0.40133732  0.23157656  0.28297954     0.04400
C310        C  0.41195338  0.22385205  0.30965097     0.02500
H311        H  0.42724792  0.24156488  0.24353694     0.07600
H312        H  0.39945531  0.21851585  0.32871109     0.06400
N313        N  0.03225032  0.22696551  0.72551096    -0.28000
N314        N  0.04277375  0.20053771  0.72160889    -0.35800
C315        C  0.07159771  0.20068617  0.72307291     0.00400
C316        C  0.08110312  0.22834253  0.72847718     0.06400
C317        C  0.05545266  0.24485580  0.72966756    -0.06700
H318        H  0.08481511  0.18151931  0.72018823     0.07000
H319        H  0.05387794  0.26787670  0.73387378     0.08200
Cu320      Cu  0.02130392  0.16288111  0.71336888     0.44200
Cu321      Cu  0.98576075  0.23409240  0.72478450     0.42000
Cu322      Cu  0.95041597  0.16328586  0.70802167     0.43900
N323        N  0.00102030  0.12738576  0.69665414    -0.35400
N324        N  0.97272802  0.12761520  0.69436737    -0.29600
C325        C  0.96444521  0.10674985  0.67589737    -0.05700
C326        C  0.98907712  0.09275325  0.66569635     0.06500
C327        C  0.01192520  0.10633758  0.67977099     0.00300
H328        H  0.94267314  0.10485021  0.66755207     0.07900
H329        H  0.03478841  0.10380563  0.67545446     0.07000
N330        N  0.92881272  0.20134735  0.71433515    -0.36800
N331        N  0.93941115  0.22728667  0.72061329    -0.29000
C332        C  0.91637375  0.24574117  0.72246240    -0.04200
C333        C  0.89077451  0.23038699  0.71636333     0.04400
C334        C  0.90005115  0.20251118  0.71155303     0.02500
H335        H  0.91803762  0.26862004  0.72734313     0.07600
H336        H  0.88673434  0.18386196  0.70665779     0.06400
O337        O  0.01778709  0.03530792  0.54096386    -0.73600
O338        O  0.02038312  0.00744194  0.45930833    -0.74600
O339        O  0.01743115  0.06233971  0.48659444    -0.63200
O340        O  0.02056438  0.98061158  0.51431595    -0.71700
O341        O  0.97261736  0.97836362  0.51339741    -0.71200
O342        O  0.96947181  0.06038320  0.48587913    -0.62500
O343        O  0.97243117  0.00525085  0.45835755    -0.75000
O344        O  0.96981507  0.03308001  0.54044849    -0.73700
Cu345      Cu  0.02069328  0.02149964  0.50021933     1.04600
Cu346      Cu  0.96938662  0.01921477  0.49939399     1.04300
C347        C  0.99345592  0.03851412  0.55370851     0.92600
C348        C  0.99691414  0.00155447  0.44595768     0.91700
C349        C  0.99297333  0.07446877  0.48222249     0.83800
C350        C  0.99709567  0.96676495  0.51895463     0.90100
N351        N  0.20939380  0.29563202  0.55154134    -0.28000
N352        N  0.20385816  0.32160536  0.56268563    -0.35800
C353        C  0.20504257  0.32076242  0.59166232     0.00400
C354        C  0.21145320  0.29303589  0.60045152     0.06400
C355        C  0.21393083  0.27741344  0.57429499    -0.06700
H356        H  0.20078103  0.33926973  0.60551495     0.07000
H357        H  0.21908026  0.25464485  0.57209509     0.08200
Cu358      Cu  0.19193091  0.35872027  0.54120105     0.44200
Cu359      Cu  0.21034552  0.28826799  0.50484515     0.42000
Cu360      Cu  0.18098426  0.35180234  0.46858519     0.43900
N361        N  0.17243115  0.39145622  0.51825790    -0.35400
N362        N  0.16837248  0.38847817  0.49022396    -0.29600
C363        C  0.15166559  0.41011311  0.48066042    -0.05700
C364        C  0.14440709  0.42765638  0.50402568     0.06500
C365        C  0.15816507  0.41513003  0.52761430     0.00300
H366        H  0.14320413  0.41119659  0.45887347     0.07900
H367        H  0.15617881  0.42129195  0.55015553     0.07000
N368        N  0.19502936  0.31582298  0.44662768    -0.36800
N369        N  0.20702587  0.29245004  0.45795061    -0.29000
C370        C  0.21536782  0.27519226  0.43529614    -0.04200
C371        C  0.20771235  0.28849928  0.40896093     0.04400
C372        C  0.19493901  0.31411047  0.41765663     0.02500
H373        H  0.22626347  0.25459402  0.43765330     0.07600
H374        H  0.18703908  0.33121975  0.40385388     0.06400
N375        N  0.28292301  0.05256370  0.77603892    -0.28000
N376        N  0.30757923  0.06399682  0.78510825    -0.35800
C377        C  0.30602989  0.09290624  0.78542702     0.00400
C378        C  0.27904587  0.10165547  0.77624944     0.06400
C379        C  0.26480493  0.07523544  0.77021390    -0.06700
H380        H  0.32400038  0.10649618  0.79170789     0.07000
H381        H  0.24290219  0.07282697  0.76231623     0.08200
Cu382      Cu  0.34443702  0.04306885  0.79772460     0.44200
Cu383      Cu  0.27833426  0.00554094  0.77309018     0.42000
Cu384      Cu  0.35011571  0.97156485  0.78869075     0.43900
N385        N  0.38047769  0.02199355  0.81231534    -0.35400
N386        N  0.38295099  0.99389595  0.80854407    -0.29600
C387        C  0.40537800  0.98413530  0.82415882    -0.05700
C388        C  0.41766130  0.00751859  0.83871532     0.06500
C389        C  0.40123707  0.03125859  0.83036881     0.00300
H390        H  0.41047446  0.96143865  0.82666411     0.07900
H391        H  0.40230687  0.05309970  0.83884960     0.07000
N392        N  0.31326005  0.94890682  0.77883305    -0.36800
N393        N  0.28687049  0.95898165  0.77383249    -0.29000
C394        C  0.26929592  0.93539249  0.77060688    -0.04200
C395        C  0.28565542  0.90983390  0.77419981     0.04400
C396        C  0.31326108  0.91993356  0.77911162     0.02500
H397        H  0.24627541  0.93661358  0.76654268     0.07600
H398        H  0.33251107  0.90717881  0.78288247     0.06400
C399        C  0.25255257  0.27234415  0.73869905     0.44800
H400        H  0.26665109  0.28671948  0.72564793    -0.04300
C401        C  0.22043053  0.23857038  0.76991073     0.44800
H402        H  0.20697940  0.22426760  0.78366799    -0.04300
C403        C  0.22369954  0.26422091  0.72359178    -0.18000
C404        C  0.26745128  0.24320939  0.74601775    -0.17700
C405        C  0.24365215  0.28590712  0.76800631    -0.18100
C406        C  0.20566997  0.24797434  0.74109411    -0.18100
C407        C  0.24950604  0.22446774  0.76085630    -0.17600
C408        C  0.22838655  0.26727549  0.78563628    -0.18000
N409        N  0.53280568  0.21263868  0.71867304    -0.28000
N410        N  0.54343315  0.18660894  0.71273783    -0.35800
C411        C  0.57240206  0.18721490  0.71213782     0.00400
C412        C  0.58194194  0.21490094  0.71793396     0.06400
C413        C  0.55602659  0.23062857  0.72224516    -0.06700
H414        H  0.58554507  0.16829839  0.70777122     0.07000
H415        H  0.55432679  0.25348510  0.72723902     0.08200
Cu416      Cu  0.52113277  0.14956904  0.70288443     0.44200
Cu417      Cu  0.48596674  0.21972128  0.72048854     0.42000
Cu418      Cu  0.44915588  0.15366280  0.69327160     0.43900
N419        N  0.49961147  0.11623318  0.68303928    -0.35400
N420        N  0.47156404  0.11805512  0.67876442    -0.29600
C421        C  0.46324889  0.09670489  0.66080514    -0.05700
C422        C  0.48756407  0.08068312  0.65310398     0.06500
C423        C  0.51025894  0.09374022  0.66788038     0.00300
H424        H  0.44171300  0.09492221  0.65183121     0.07900
H425        H  0.53310074  0.08901627  0.66588525     0.07000
N426        N  0.42777304  0.18954950  0.70865874    -0.36800
N427        N  0.43896668  0.21395142  0.71883522    -0.29000
C428        C  0.41614999  0.23107485  0.72700237    -0.04200
C429        C  0.38983131  0.21646361  0.72148512     0.04400
C430        C  0.39884701  0.19031129  0.70995339     0.02500
H431        H  0.41840450  0.25246174  0.73640383     0.07600
H432        H  0.38550529  0.17233578  0.70316971     0.06400
C433        C  0.71869127  0.27317246  0.72098691     0.44800
H434        H  0.70433287  0.28622794  0.70688872    -0.04300
C435        C  0.75272458  0.24223687  0.75307535     0.44800
H436        H  0.76717590  0.22859301  0.76652630    -0.04300
C437        C  0.74827561  0.26630037  0.70640029    -0.18000
C438        C  0.72654608  0.28816415  0.75021584    -0.17700
C439        C  0.70543664  0.24354780  0.72926093    -0.18100
C440        C  0.76692893  0.25177765  0.72449685    -0.18100
C441        C  0.74290241  0.27071068  0.76815358    -0.17600
C442        C  0.72455663  0.22628371  0.74429912    -0.18000
N443        N  0.70297312  0.46137307  0.76458539    -0.28000
N444        N  0.67677789  0.45113917  0.77024576    -0.35800
C445        C  0.67674820  0.42221448  0.76879175     0.00400
C446        C  0.70407868  0.41250201  0.76198716     0.06400
C447        C  0.72048920  0.43801658  0.75962818    -0.06700
H448        H  0.65786958  0.40905234  0.77304008     0.07000
H449        H  0.74323140  0.43939442  0.75420779     0.08200
Cu450      Cu  0.64017652  0.47337982  0.78220357     0.44200
Cu451      Cu  0.71129619  0.50765109  0.76384917     0.42000
Cu452      Cu  0.64377133  0.54560689  0.78332640     0.43900
N453        N  0.60699498  0.49687220  0.80026624    -0.35400
N454        N  0.60840978  0.52527693  0.80017873    -0.29600
C455        C  0.58822088  0.53616623  0.81802839    -0.05700
C456        C  0.57339540  0.51326043  0.83041695     0.06500
C457        C  0.58578943  0.48856614  0.81831095     0.00300
H458        H  0.58665928  0.55886864  0.82366592     0.07900
H459        H  0.58214501  0.46636779  0.82470233     0.07000
N460        N  0.68169209  0.56624699  0.77406201    -0.36800
N461        N  0.70673534  0.55441581  0.76649376    -0.29000
C462        C  0.72576874  0.57662320  0.76251646    -0.04200
C463        C  0.71176730  0.60305938  0.76863151     0.04400
C464        C  0.68401888  0.59508752  0.77571486     0.02500
H465        H  0.74818291  0.57385378  0.75626902     0.07600
H466        H  0.66631098  0.60937370  0.78147093     0.06400
C467        C  0.76547153  0.77189495  0.76431552     0.44800
H468        H  0.78011876  0.78462525  0.77849395    -0.04300
C469        C  0.73237961  0.74140922  0.73064918     0.44800
H470        H  0.71843813  0.72796050  0.71634674    -0.04300
C471        C  0.73685124  0.78781595  0.75606471    -0.18000
C472        C  0.78005085  0.76382701  0.73495834    -0.17700
C473        C  0.75602484  0.74285091  0.77805773    -0.18100
C474        C  0.71834997  0.77057970  0.73987564    -0.18100
C475        C  0.76142918  0.74947797  0.71644573    -0.17600
C476        C  0.74034772  0.72577611  0.75910813    -0.18000
N477        N  0.54503202  0.78397170  0.71386819    -0.28000
N478        N  0.55537227  0.79165103  0.68825101    -0.35800
C479        C  0.58436865  0.79164679  0.68850375     0.00400
C480        C  0.59413286  0.78369308  0.71546656     0.06400
C481        C  0.56842942  0.77910814  0.73131137    -0.06700
H482        H  0.59754472  0.79741876  0.67003232     0.07000
H483        H  0.56700728  0.77216468  0.75359732     0.08200
Cu484      Cu  0.53248743  0.80364891  0.65216455     0.44200
Cu485      Cu  0.49829444  0.78078927  0.72104199     0.42000
Cu486      Cu  0.45963908  0.80970966  0.65706178     0.43900
N487        N  0.50921182  0.82113832  0.61870603    -0.35400
N488        N  0.48095474  0.82374411  0.62075218    -0.29600
C489        C  0.47109326  0.83907170  0.59822335    -0.05700
C490        C  0.49454598  0.84675247  0.58104337     0.06500
C491        C  0.51842203  0.83478356  0.59482546     0.00300
H492        H  0.44883694  0.84593634  0.59595217     0.07900
H493        H  0.54099087  0.83739919  0.58923816     0.07000
N494        N  0.43918202  0.79448953  0.69338924    -0.36800
N495        N  0.45115391  0.78291262  0.71668821    -0.29000
C496        C  0.42891827  0.77483735  0.73447358    -0.04200
C497        C  0.40227499  0.78239224  0.72165478     0.04400
C498        C  0.41027266  0.79462549  0.69575373     0.02500
H499        H  0.43177607  0.76478479  0.75537544     0.07600
H500        H  0.39591934  0.80278957  0.67919834     0.06400
C501        C  0.23133438  0.77182389  0.77193380     0.44800
H502        H  0.21751961  0.78652293  0.78515717    -0.04300
C503        C  0.26381032  0.73775921  0.74078675     0.44800
H504        H  0.27757309  0.72330473  0.72726097    -0.04300
C505        C  0.21719231  0.76295925  0.74287216    -0.18000
C506        C  0.26075106  0.78561026  0.76366605    -0.17700
C507        C  0.23906331  0.74310597  0.78736516    -0.18100
C508        C  0.23538492  0.74672155  0.72533385    -0.18100
C509        C  0.27900341  0.76659230  0.74912666    -0.17600
C510        C  0.25395745  0.72391390  0.76974983    -0.18000
N511        N  0.05681768  0.79330156  0.29129804    -0.28000
N512        N  0.06787176  0.81629995  0.30449632    -0.35800
C513        C  0.09681917  0.81446519  0.30539454     0.00400
C514        C  0.10562151  0.78919844  0.29196105     0.06400
C515        C  0.07951999  0.77622770  0.28307903    -0.06700
H516        H  0.11055439  0.83131254  0.31415485     0.07000
H517        H  0.07733192  0.75602502  0.27131456     0.08200
Cu518      Cu  0.04584851  0.85245852  0.31818001     0.44200
Cu519      Cu  0.01037927  0.78873674  0.28532712     0.42000
Cu520      Cu  0.97536410  0.85966037  0.29602401     0.43900
N521        N  0.02314278  0.88987569  0.32592616    -0.35400
N522        N  0.99617423  0.89285442  0.31729926    -0.29600
C523        C  0.98520421  0.91741917  0.32857185    -0.05700
C524        C  0.00658555  0.93064028  0.34503256     0.06500
C525        C  0.03043059  0.91254796  0.34263256     0.00300
H526        H  0.96278790  0.92390950  0.32667400     0.07900
H527        H  0.05061676  0.91421549  0.35436672     0.07000
N528        N  0.95328485  0.82263312  0.28469481    -0.36800
N529        N  0.96399051  0.79610537  0.28218415    -0.29000
C530        C  0.94110938  0.77792320  0.27764641    -0.04200
C531        C  0.91529932  0.79417435  0.27693658     0.04400
C532        C  0.92446213  0.82222836  0.28153329     0.02500
H533        H  0.94300409  0.75473354  0.27475219     0.07600
H534        H  0.91090313  0.84127012  0.28345012     0.06400
C535        C  0.27589218  0.73987372  0.27433710     0.44800
H536        H  0.28998149  0.72681493  0.28864925    -0.04300
C537        C  0.24182457  0.76982592  0.24141371     0.44800
H538        H  0.22707577  0.78286826  0.22775400    -0.04300
C539        C  0.24630310  0.74703718  0.28871477    -0.18000
C540        C  0.28921233  0.76937165  0.26536400    -0.17700
C541        C  0.26836245  0.72415639  0.24538480    -0.18100
C542        C  0.22764268  0.76135246  0.27040053    -0.18100
C543        C  0.26993270  0.78627252  0.24984138    -0.17600
C544        C  0.25181440  0.74098705  0.22701147    -0.18000
N545        N  0.29445709  0.45751161  0.23130425    -0.28000
N546        N  0.31871231  0.44503424  0.22220069    -0.35800
C547        C  0.31572995  0.41614502  0.22155578     0.00400
C548        C  0.28837413  0.40884161  0.23087785     0.06400
C549        C  0.27538643  0.43575787  0.23720222    -0.06700
H550        H  0.33270697  0.40136440  0.21490397     0.07000
H551        H  0.25354563  0.43914764  0.24500098     0.08200
Cu552      Cu  0.35629615  0.46514476  0.20952382     0.44200
Cu553      Cu  0.29031076  0.50455241  0.23381355     0.42000
Cu554      Cu  0.36007489  0.53863489  0.21613409     0.43900
N555        N  0.38989244  0.48773131  0.19129138    -0.35400
N556        N  0.39127385  0.51607351  0.19377811    -0.29600
C557        C  0.41097094  0.52625965  0.17505149    -0.05700
C558        C  0.42258027  0.50301003  0.15971945     0.06500
C559        C  0.40875554  0.47883262  0.17097902     0.00300
H560        H  0.41422085  0.54905306  0.17099258     0.07900
H561        H  0.40992574  0.45677865  0.16309936     0.07000
N562        N  0.32410228  0.56158476  0.22876457    -0.36800
N563        N  0.29786065  0.55118877  0.23373819    -0.29000
C564        C  0.28006986  0.57448197  0.23809030    -0.04200
C565        C  0.29630338  0.60021866  0.23606014     0.04400
C566        C  0.32393158  0.59058163  0.23012446     0.02500
H567        H  0.25713657  0.57295069  0.24257530     0.07600
H568        H  0.34274945  0.60383705  0.22591802     0.06400
N569        N  0.20687233  0.73516305  0.55262954    -0.28000
N570        N  0.18035889  0.73201980  0.56307963    -0.35800
C571        C  0.18072149  0.73222632  0.59203672     0.00400
C572        C  0.20877578  0.73537876  0.60169609     0.06400
C573        C  0.22497584  0.73751773  0.57588554    -0.06700
H574        H  0.16142110  0.72977815  0.60503528     0.07000
H575        H  0.24820257  0.73995882  0.57426233     0.08200
Cu576      Cu  0.14300569  0.72334268  0.54078425     0.44200
Cu577      Cu  0.21450368  0.73482017  0.50611775     0.42000
Cu578      Cu  0.14563503  0.71711468  0.46837906     0.43900
N579        N  0.10923620  0.70456171  0.51894212    -0.35400
N580        N  0.11021424  0.70224059  0.49057997    -0.29600
C581        C  0.08903557  0.68448865  0.48159787    -0.05700
C582        C  0.07408443  0.67481566  0.50575264     0.06500
C583        C  0.08750819  0.68821693  0.52911553     0.00300
H584        H  0.08685184  0.67673112  0.45956153     0.07900
H585        H  0.08355415  0.68446874  0.55187150     0.07000
N586        N  0.18377163  0.72653743  0.44763275    -0.36800
N587        N  0.20922061  0.73263688  0.45934321    -0.29000
C588        C  0.22822334  0.73640805  0.43701781    -0.04200
C589        C  0.21379863  0.73212995  0.41046510     0.04400
C590        C  0.18573752  0.72612748  0.41871449     0.02500
H591        H  0.25087466  0.74161403  0.43978481     0.07600
H592        H  0.16746774  0.72185008  0.40474991     0.06400
N593        N  0.04650704  0.78281026  0.70765488    -0.28000
N594        N  0.05812252  0.79280596  0.68345566    -0.35800
C595        C  0.08706017  0.79290895  0.68525541     0.00400
C596        C  0.09547937  0.78250917  0.71189351     0.06400
C597        C  0.06895834  0.77607965  0.72563042    -0.06700
H598        H  0.10093188  0.79994359  0.66780277     0.07000
H599        H  0.06631274  0.76730379  0.74713364     0.08200
Cu600      Cu  0.03700022  0.80760681  0.64741688     0.23400
Cu601      Cu  0.99955680  0.77977368  0.71259389     0.42000
Cu602      Cu  0.96426006  0.80316768  0.64436626     0.43900
N603        N  0.01480989  0.82763791  0.61476304    -0.35400
N604        N  0.98644355  0.82609718  0.61355466    -0.29600
C605        C  0.97667255  0.84495329  0.59379701    -0.05700
C606        C  0.00031258  0.85927185  0.58196986     0.06500
C607        C  0.02419130  0.84741553  0.59580411     0.00300
H608        H  0.95399802  0.84951236  0.59026230     0.07900
H609        H  0.04653498  0.85408732  0.59407396     0.07000
N610        N  0.94225867  0.78794206  0.67977951    -0.36800
N611        N  0.95283331  0.78031004  0.70526228    -0.29000
C612        C  0.92961114  0.77429481  0.72260833    -0.04200
C613        C  0.90366655  0.77859275  0.70703434     0.04400
C614        C  0.91332062  0.78701146  0.68006042     0.02500
H615        H  0.93132921  0.76767551  0.74496752     0.07600
H616        H  0.90039340  0.79268560  0.66147518     0.06400
N617        N  0.71872868  0.05456913  0.77665118    -0.28000
N618        N  0.70947717  0.06597453  0.80138220    -0.35800
C619        C  0.70717632  0.09478810  0.79922218     0.00400
C620        C  0.71546250  0.10320422  0.77190739     0.06400
C621        C  0.72301392  0.07701759  0.75803378    -0.06700
H622        H  0.70037549  0.10876675  0.81685152     0.07000
H623        H  0.73064584  0.07457581  0.73599613     0.08200
Cu624      Cu  0.69996321  0.04475150  0.83903903     0.44200
Cu625      Cu  0.72369719  0.00795667  0.77183414     0.42000
Cu626      Cu  0.71364316  0.97355363  0.84398110     0.43900
N627        N  0.68817519  0.02256813  0.87545745    -0.35400
N628        N  0.69341720  0.99468505  0.87751447    -0.29600
C629        C  0.67867258  0.98395287  0.90012358    -0.05700
C630        C  0.66326900  0.00647217  0.91298079     0.06500
C631        C  0.67012358  0.03070833  0.89674319     0.00300
H632        H  0.67726104  0.96112850  0.90502253     0.07900
H633        H  0.66025509  0.05192244  0.89814162     0.07000
N634        N  0.72333682  0.95148756  0.80658029    -0.36800
N635        N  0.72565576  0.96166196  0.77990371    -0.29000
C636        C  0.72897857  0.93827300  0.76193095    -0.04200
C637        C  0.72903778  0.91279789  0.77852887     0.04400
C638        C  0.72533090  0.92261072  0.80646651     0.02500
H639        H  0.73138412  0.93958989  0.73867302     0.07600
H640        H  0.72316275  0.90951520  0.82569834     0.06400
N641        N  0.04104927  0.24013628  0.29636163    -0.28000
N642        N  0.05145199  0.23652826  0.32282143    -0.35800
C643        C  0.08044751  0.23528567  0.32219668     0.00400
C644        C  0.09012106  0.23826761  0.29406661     0.06400
C645        C  0.06431723  0.24157143  0.27811914    -0.06700
H646        H  0.09356336  0.23255141  0.34135920     0.07000
H647        H  0.06270462  0.24438658  0.25494165     0.08200
Cu648      Cu  0.02827301  0.23135548  0.36054734     0.44200
Cu649      Cu  0.99442609  0.24185086  0.28875232     0.42000
Cu650      Cu  0.95499623  0.22814080  0.35721862     0.43900
N651        N  0.00463513  0.21664670  0.39521085    -0.35400
N652        N  0.97626944  0.21511760  0.39377869    -0.29600
C653        C  0.96650388  0.19768074  0.41476064    -0.05700
C654        C  0.99011767  0.18719043  0.43009305     0.06500
C655        C  0.01394582  0.20025724  0.41720007     0.00300
H656        H  0.94437655  0.19020657  0.41594900     0.07900
H657        H  0.03651857  0.19525897  0.42070641     0.07000
N658        N  0.93500666  0.23567762  0.31838973    -0.36800
N659        N  0.94734680  0.24094802  0.29304900    -0.29000
C660        C  0.92543761  0.24458756  0.27355846    -0.04200
C661        C  0.89855316  0.24091412  0.28757198     0.04400
C662        C  0.90613296  0.23543897  0.31586342     0.02500
H663        H  0.92868485  0.24920983  0.25085024     0.07600
H664        H  0.89163150  0.23189525  0.33389844     0.06400
C665        C  0.26125700  0.27162816  0.27314706     0.44800
H666        H  0.27463583  0.28506440  0.28799120    -0.04300
C667        C  0.22976023  0.24070131  0.23820841     0.44800
H668        H  0.21599109  0.22762868  0.22343190    -0.04300
C669        C  0.25402692  0.28737475  0.24446306    -0.18000
C670        C  0.27611427  0.24289153  0.26378959    -0.17700
C671        C  0.23178743  0.26294625  0.28646142    -0.18100
C672        C  0.23912360  0.27009863  0.22497775    -0.18100
C673        C  0.25845305  0.22535372  0.24710630    -0.17600
C674        C  0.21410913  0.24834538  0.26718099    -0.18000
N675        N  0.77372494  0.71386839  0.04422496    -0.28000
N676        N  0.77789073  0.68790147  0.05554080    -0.35800
C677        C  0.77975496  0.68967642  0.08442226     0.00400
C678        C  0.77680561  0.71814034  0.09316502     0.06400
C679        C  0.77267326  0.73305088  0.06688415    -0.06700
H680        H  0.78310978  0.67103482  0.09806661     0.07000
H681        H  0.76962851  0.75614697  0.06452893     0.08200
Cu682      Cu  0.78412059  0.64935464  0.03412412     0.44200
Cu683      Cu  0.77074894  0.71914142  0.99728205     0.42000
Cu684      Cu  0.78082156  0.64748975  0.96152913     0.43900
N685        N  0.80039216  0.61439192  0.01189600    -0.35400
N686        N  0.79929289  0.61373614  0.98346482    -0.29600
C687        C  0.81760820  0.59340303  0.97347523    -0.05700
C688        C  0.83120635  0.58071613  0.99701615     0.06500
C689        C  0.81937811  0.59445599  0.02107959     0.00300
H690        H  0.82283724  0.59046304  0.95081930     0.07900
H691        H  0.82678563  0.59290760  0.04322507     0.07000
N692        N  0.77237605  0.68508665  0.93968282    -0.36800
N693        N  0.76944068  0.71157859  0.95048643    -0.29000
C694        C  0.76653885  0.72975327  0.92740552    -0.04200
C695        C  0.76812895  0.71364630  0.90135485     0.04400
C696        C  0.77160763  0.68556182  0.91070925     0.02500
H697        H  0.76402754  0.75298323  0.92927803     0.07600
H698        H  0.77374344  0.66631259  0.89744570     0.06400
O699        O  0.53803169  0.48810343  0.00664455    -0.73600
O700        O  0.45597291  0.48666206  0.97955430    -0.74600
O701        O  0.51043039  0.48882084  0.95202842    -0.63200
O702        O  0.48334051  0.48571427  0.03399765    -0.71700
O703        O  0.48188028  0.53369832  0.03605549    -0.71200
O704        O  0.50982854  0.53685431  0.95400302    -0.62500
O705        O  0.45478789  0.53466978  0.98110436    -0.75000
O706        O  0.53687861  0.53608673  0.00882077    -0.73700
Cu707      Cu  0.49700637  0.48568276  0.99299895     1.04600
Cu708      Cu  0.49577994  0.53703466  0.99504264     1.04300
C709        C  0.55045377  0.51222025  0.01217569     0.92600
C710        C  0.44238268  0.51046625  0.97593952     0.91700
C711        C  0.51467318  0.51332214  0.94010263     0.83800
C712        C  0.47804690  0.50907982  0.04796738     0.90100
O713        O  0.46939566  0.01354715  0.53244830    -0.73600
O714        O  0.47094393  0.98813151  0.44957363    -0.74600
O715        O  0.47029565  0.95946547  0.50373916    -0.63200
O716        O  0.47026426  0.04231587  0.47846442    -0.71700
O717        O  0.51825528  0.04250121  0.47977264    -0.71200
O718        O  0.51829698  0.95983205  0.50442565    -0.62500
O719        O  0.51894345  0.98879499  0.45049887    -0.75000
O720        O  0.51740061  0.01373797  0.53343113    -0.73700
Cu721      Cu  0.46853037  0.00082945  0.49100546     1.04600
Cu722      Cu  0.51987708  0.00117827  0.49202072     1.04300
C723        C  0.49309191  0.01788097  0.54601071     0.92600
C724        C  0.49526840  0.98453553  0.43686752     0.91700
C725        C  0.49434842  0.94673515  0.50869885     0.83800
C726        C  0.49433500  0.05547554  0.47496782     0.90100
O727        O  0.97419794  0.47649588  0.47414792    -0.73600
O728        O  0.00350939  0.55783571  0.47904026    -0.74600
O729        O  0.02951280  0.50231962  0.47806376    -0.63200
O730        O  0.94803490  0.53183230  0.47532568    -0.71700
O731        O  0.94611287  0.53040574  0.52328865    -0.71200
O732        O  0.02706184  0.50033778  0.52598464    -0.62500
O733        O  0.00188493  0.55594285  0.52701363    -0.75000
O734        O  0.97183378  0.47481034  0.52208517    -0.73700
Cu735      Cu  0.98887800  0.51724745  0.47496140     1.04600
Cu736      Cu  0.98658631  0.51538295  0.52625167     1.04300
C737        C  0.96844087  0.46272122  0.49735661     0.92600
C738        C  0.00790281  0.56956067  0.50377040     0.91700
C739        C  0.04104370  0.49627023  0.50244410     0.83800
C740        C  0.93410063  0.53561697  0.49897077     0.90100
C741        C  0.13130179  0.25060052  0.25897834    -0.14000
C742        C  0.12163681  0.23815951  0.28503683     0.08100
C743        C  0.14291286  0.22671844  0.30379919    -0.14000
C744        C  0.17262235  0.22892033  0.29756069    -0.14000
C745        C  0.18231559  0.24263653  0.27230900     0.08100
C746        C  0.16122893  0.25275831  0.25270321    -0.14000
H747        H  0.11581672  0.25958143  0.24391570     0.12100
H748        H  0.13673906  0.21620992  0.32373072     0.12100
H749        H  0.18810942  0.22030190  0.31284432     0.12100
H750        H  0.16795768  0.26342433  0.23298707     0.12100
C751        C  0.05078254  0.63337399  0.53165112    -0.14000
C752        C  0.05368653  0.65016732  0.50652432     0.08100
C753        C  0.03892014  0.64164465  0.48131120    -0.14000
C754        C  0.02295889  0.61600031  0.48073652    -0.14000
C755        C  0.02130103  0.59849021  0.50543190     0.08100
C756        C  0.03470630  0.60780033  0.53110977    -0.14000
H757        H  0.06196882  0.63915540  0.55141077     0.12100
H758        H  0.04036337  0.65434939  0.46173946     0.12100
H759        H  0.01259334  0.60947062  0.46071840     0.12100
H760        H  0.03387569  0.59467178  0.55045217     0.12100
C761        C  0.25830545  0.36968476  0.25530987    -0.14000
C762        C  0.27733405  0.37825251  0.23316761     0.08100
C763        C  0.28798984  0.35655970  0.21419301    -0.14000
C764        C  0.28019894  0.32729260  0.21740671    -0.14000
C765        C  0.26177700  0.31868457  0.23993599     0.08100
C766        C  0.25094982  0.34023255  0.25885937    -0.14000
H767        H  0.24991826  0.38558865  0.27047817     0.12100
H768        H  0.30259736  0.36220917  0.19677564     0.12100
H769        H  0.28899642  0.31127879  0.20258028     0.12100
H770        H  0.23670817  0.33421096  0.27647466     0.12100
C771        C  0.44910458  0.53112917  0.12154170    -0.14000
C772        C  0.44000733  0.50434386  0.13273002     0.08100
C773        C  0.44584085  0.47901422  0.11669082    -0.14000
C774        C  0.45897552  0.48055727  0.08954403    -0.14000
C775        C  0.46667678  0.50743919  0.07779145     0.08100
C776        C  0.46218961  0.53266422  0.09430800    -0.14000
H777        H  0.44548118  0.55110517  0.13332530     0.12100
H778        H  0.43962282  0.45792664  0.12457023     0.12100
H779        H  0.46235283  0.46067831  0.07742831     0.12100
H780        H  0.46820447  0.55367965  0.08593981     0.12100
C781        C  0.20660087  0.72265944  0.35688551    -0.14000
C782        C  0.22414227  0.73367716  0.37948599     0.08100
C783        C  0.25042427  0.74695300  0.37168346    -0.14000
C784        C  0.25812407  0.75022561  0.34224465    -0.14000
C785        C  0.23969763  0.74048204  0.31990331     0.08100
C786        C  0.21421515  0.72603932  0.32769359    -0.14000
H787        H  0.18660663  0.71148457  0.36152526     0.12100
H788        H  0.26460476  0.75558764  0.38824210     0.12100
H789        H  0.27800089  0.76140576  0.33689302     0.12100
H790        H  0.19987436  0.71768175  0.31111263     0.12100
C791        C  0.25460007  0.67239773  0.23136568    -0.14000
C792        C  0.27560487  0.69257901  0.24077557     0.08100
C793        C  0.30273695  0.68185276  0.24918859    -0.14000
C794        C  0.30889612  0.65208056  0.24798230    -0.14000
C795        C  0.28802699  0.63173155  0.23870578     0.08100
C796        C  0.26066521  0.64234087  0.23051560    -0.14000
H797        H  0.23319496  0.67980808  0.22538539     0.12100
H798        H  0.31933029  0.69658079  0.25681047     0.12100
H799        H  0.33016527  0.64495502  0.25470785     0.12100
H800        H  0.24412250  0.62747942  0.22308492     0.12100
C801        C  0.15880040  0.79218862  0.30489617    -0.14000
C802        C  0.13668350  0.78043487  0.28724065     0.08100
C803        C  0.14497037  0.76179824  0.26449708    -0.14000
C804        C  0.17443218  0.75571322  0.25920172    -0.14000
C805        C  0.19635891  0.76780702  0.27664666     0.08100
C806        C  0.18815313  0.78595101  0.29969213    -0.14000
H807        H  0.15349411  0.80633639  0.32289470     0.12100
H808        H  0.12874665  0.75238887  0.25042377     0.12100
H809        H  0.18011170  0.74122801  0.24159448     0.12100
H810        H  0.20450356  0.79551176  0.31353809     0.12100
C811        C  0.17851051  0.78757553  0.71293980    -0.14000
C812        C  0.18607987  0.76979211  0.73620246     0.08100
C813        C  0.16361921  0.75743321  0.75272348    -0.14000
C814        C  0.13425044  0.76191742  0.74549877    -0.14000
C815        C  0.12654857  0.77903652  0.72158550     0.08100
C816        C  0.14929558  0.79220003  0.70581178    -0.14000
H817        H  0.19526805  0.79759993  0.70000261     0.12100
H818        H  0.16885672  0.74352135  0.77077116     0.12100
H819        H  0.11764673  0.75140834  0.75820892     0.12100
H820        H  0.14473846  0.80607771  0.68762050     0.12100
C821        C  0.25068529  0.74855361  0.67261426    -0.14000
C822        C  0.23005193  0.74065980  0.69371870     0.08100
C823        C  0.20386447  0.72870625  0.68420592    -0.14000
C824        C  0.19770274  0.72626571  0.65457157    -0.14000
C825        C  0.21751013  0.73566502  0.63319769     0.08100
C826        C  0.24449160  0.74615572  0.64271397    -0.14000
H827        H  0.27120922  0.75771606  0.67928254     0.12100
H828        H  0.18784348  0.72161654  0.69975507     0.12100
H829        H  0.17704121  0.71708037  0.64862482     0.12100
H830        H  0.26041107  0.75339846  0.62714321     0.12100
C831        C  0.35038677  0.79970825  0.72260028    -0.14000
C832        C  0.37126415  0.77913984  0.73137904     0.08100
C833        C  0.36140764  0.75476812  0.74661384    -0.14000
C834        C  0.33154668  0.75084289  0.75214783    -0.14000
C835        C  0.31078603  0.77140503  0.74314976     0.08100
C836        C  0.32072178  0.79593567  0.72838067    -0.14000
H837        H  0.35699132  0.81881722  0.71085181     0.12100
H838        H  0.37662996  0.73830723  0.75339001     0.12100
H839        H  0.32461286  0.73166153  0.76360129     0.12100
H840        H  0.30547025  0.81200962  0.72080376     0.12100
C841        C  0.52082478  0.88027948  0.54750406    -0.14000
C842        C  0.49464361  0.86840268  0.55744551     0.08100
C843        C  0.46845669  0.87962802  0.54678169    -0.14000
C844        C  0.46838086  0.90399009  0.52903395    -0.14000
C845        C  0.49449880  0.91751577  0.52149280     0.08100
C846        C  0.52074243  0.90461257  0.52973364    -0.14000
H847        H  0.54147068  0.87198622  0.55469297     0.12100
H848        H  0.44786939  0.87057073  0.55321125     0.12100
H849        H  0.44779257  0.91316288  0.52262598     0.12100
H850        H  0.54126677  0.91430421  0.52392055     0.12100
C851        C  0.66743144  0.78601850  0.75549639    -0.14000
C852        C  0.68682365  0.77665929  0.73364363     0.08100
C853        C  0.67517925  0.76931656  0.70651952    -0.14000
C854        C  0.64533792  0.77131735  0.70123111    -0.14000
C855        C  0.62573114  0.78028961  0.72298124     0.08100
C856        C  0.63722609  0.78760584  0.75030583    -0.14000
H857        H  0.67555307  0.79127031  0.77687195     0.12100
H858        H  0.68921631  0.76177988  0.68925122     0.12100
H859        H  0.63752671  0.76536549  0.67992343     0.12100
H860        H  0.62295422  0.79488674  0.76748924     0.12100
C861        C  0.75275393  0.75599412  0.83139507    -0.14000
C862        C  0.76112564  0.73609360  0.80959321     0.08100
C863        C  0.77325296  0.70972069  0.81834623    -0.14000
C864        C  0.77606494  0.70305828  0.84787930    -0.14000
C865        C  0.76689516  0.72252398  0.86989508     0.08100
C866        C  0.75565748  0.74939135  0.86109936    -0.14000
H867        H  0.74287263  0.77632812  0.82546813     0.12100
H868        H  0.78049176  0.69410163  0.80231579     0.12100
H869        H  0.78554199  0.68237998  0.85327834     0.12100
H870        H  0.74827717  0.76495082  0.87711616     0.12100
C871        C  0.74494535  0.83243961  0.78667050    -0.14000
C872        C  0.73307212  0.81987125  0.76162842     0.08100
C873        C  0.72101957  0.83868732  0.74076037    -0.14000
C874        C  0.72049555  0.86905335  0.74526175    -0.14000
C875        C  0.73194411  0.88127802  0.77077549     0.08100
C876        C  0.74436898  0.86240905  0.79115325    -0.14000
H877        H  0.75484113  0.81917750  0.80310135     0.12100
H878        H  0.71254588  0.83002307  0.72066855     0.12100
H879        H  0.71066503  0.88284117  0.72913491     0.12100
H880        H  0.75379136  0.87085159  0.81092023     0.12100
C881        C  0.83327456  0.76106700  0.74875026    -0.14000
C882        C  0.81166790  0.76926844  0.72877745     0.08100
C883        C  0.82064934  0.78166272  0.70265938    -0.14000
C884        C  0.85014008  0.78493417  0.69619326    -0.14000
C885        C  0.87207876  0.77589389  0.71555208     0.08100
C886        C  0.86306542  0.76422025  0.74220880    -0.14000
H887        H  0.82709964  0.75144984  0.76917811     0.12100
H888        H  0.80482224  0.78907201  0.68711819     0.12100
H889        H  0.85541263  0.79471711  0.67569439     0.12100
H890        H  0.87897261  0.75711619  0.75782306     0.12100
C891        C  0.74675189  0.67371217  0.74378194    -0.14000
C892        C  0.73433578  0.69413277  0.76295663     0.08100
C893        C  0.71610136  0.68409291  0.78497352    -0.14000
C894        C  0.70989204  0.65441177  0.78732081    -0.14000
C895        C  0.72195690  0.63387321  0.76792196     0.08100
C896        C  0.74092182  0.64388542  0.74641428    -0.14000
H897        H  0.76093064  0.68092362  0.72659789     0.12100
H898        H  0.70623562  0.69927229  0.80000240     0.12100
H899        H  0.69524269  0.64752096  0.80424752     0.12100
H900        H  0.75027917  0.62883784  0.73094285     0.12100
C901        C  0.55449422  0.53949783  0.87409712    -0.14000
C902        C  0.55484100  0.51451744  0.85652038     0.08100
C903        C  0.53941484  0.48996307  0.86554821    -0.14000
C904        C  0.52536735  0.48986267  0.89234920    -0.14000
C905        C  0.52631496  0.51439703  0.91044584     0.08100
C906        C  0.54032578  0.53944283  0.90074362    -0.14000
H907        H  0.56618785  0.55880284  0.86805027     0.12100
H908        H  0.53888600  0.47053619  0.85232955     0.12100
H909        H  0.51439014  0.47035762  0.89922547     0.12100
H910        H  0.54143752  0.55863653  0.91429732     0.12100
C911        C  0.73953956  0.17421878  0.73670468    -0.14000
C912        C  0.72067776  0.19452701  0.74973853     0.08100
C913        C  0.69910199  0.18431384  0.76838610    -0.14000
C914        C  0.69695894  0.15461829  0.77453751    -0.14000
C915        C  0.71613272  0.13416223  0.76201186     0.08100
C916        C  0.73709941  0.14434089  0.74248450    -0.14000
H917        H  0.75639311  0.18157711  0.72217919     0.12100
H918        H  0.68431070  0.19939623  0.77871214     0.12100
H919        H  0.68031473  0.14768652  0.78947882     0.12100
H920        H  0.75232654  0.12939561  0.73262643     0.12100
C921        C  0.69484956  0.33223418  0.74562153    -0.14000
C922        C  0.72094573  0.31995541  0.75501254     0.08100
C923        C  0.74267936  0.33882668  0.76547928    -0.14000
C924        C  0.73807552  0.36909777  0.76684188    -0.14000
C925        C  0.71151640  0.38108915  0.75804372     0.08100
C926        C  0.69013665  0.36212468  0.74732965    -0.14000
H927        H  0.67789318  0.31877358  0.73675741     0.12100
H928        H  0.76347317  0.33024035  0.77200763     0.12100
H929        H  0.75496373  0.38298813  0.77530754     0.12100
H930        H  0.66951892  0.37046508  0.73998125     0.12100
C931        C  0.46450645  0.04781760  0.61661354    -0.14000
C932        C  0.48969081  0.05979090  0.62876518     0.08100
C933        C  0.51651671  0.05408501  0.61546567    -0.14000
C934        C  0.51781094  0.03889553  0.58929692    -0.14000
C935        C  0.49232666  0.02912518  0.57594305     0.08100
C936        C  0.46579721  0.03269788  0.59040322    -0.14000
H937        H  0.44358195  0.05112813  0.62666508     0.12100
H938        H  0.53643389  0.06268272  0.62423808     0.12100
H939        H  0.53862877  0.03619144  0.57879912     0.12100
H940        H  0.44583849  0.02492614  0.58086868     0.12100
C941        C  0.63511702  0.20549390  0.70714003    -0.14000
C942        C  0.61343875  0.22369244  0.71920508     0.08100
C943        C  0.62262069  0.24902575  0.73349642    -0.14000
C944        C  0.65237592  0.25540702  0.73630524    -0.14000
C945        C  0.67383954  0.23683477  0.72479679     0.08100
C946        C  0.66475412  0.21190076  0.70996837    -0.14000
H947        H  0.62933878  0.18601514  0.69542310     0.12100
H948        H  0.60688047  0.26347717  0.74326629     0.12100
H949        H  0.65866135  0.27444900  0.74845558     0.12100
H950        H  0.68060401  0.19728002  0.70061275     0.12100
C951        C  0.30668597  0.21244502  0.72286499    -0.14000
C952        C  0.29867951  0.23728120  0.73848226     0.08100
C953        C  0.32082623  0.25639684  0.74738474    -0.14000
C954        C  0.35032814  0.25016081  0.74176911    -0.14000
C955        C  0.35847427  0.22474803  0.72677452     0.08100
C956        C  0.33590920  0.20633460  0.71706142    -0.14000
H957        H  0.29025218  0.19759636  0.71513916     0.12100
H958        H  0.31531656  0.27587621  0.75937219     0.12100
H959        H  0.36671360  0.26502196  0.74952124     0.12100
H960        H  0.34049354  0.18682898  0.70490380     0.12100
C961        C  0.25218348  0.86811489  0.75986541    -0.14000
C962        C  0.27750126  0.87817550  0.77346336     0.08100
C963        C  0.29636673  0.85722086  0.78544255    -0.14000
C964        C  0.29086726  0.82740488  0.78282690    -0.14000
C965        C  0.26624904  0.81741010  0.76823969     0.08100
C966        C  0.24661853  0.83812826  0.75737792    -0.14000
H967        H  0.23709953  0.88333630  0.75045365     0.12100
H968        H  0.31572874  0.86370804  0.79685954     0.12100
H969        H  0.30604706  0.81211054  0.79199509     0.12100
H970        H  0.22728390  0.83104973  0.74615817     0.12100
C971        C  0.28696505  0.15524549  0.78588794    -0.14000
C972        C  0.26971799  0.13296300  0.77364825     0.08100
C973        C  0.24474944  0.14140920  0.75841093    -0.14000
C974        C  0.23793481  0.17105301  0.75488569    -0.14000
C975        C  0.25591109  0.19300804  0.76630807     0.08100
C976        C  0.28026820  0.18464665  0.78216924    -0.14000
H977        H  0.30599945  0.15023919  0.79845870     0.12100
H978        H  0.23086578  0.12521052  0.74867510     0.12100
H979        H  0.21902538  0.17687549  0.74238201     0.12100
H980        H  0.29430265  0.20094200  0.79156493     0.12100
C981        C  0.23524588  0.26094242  0.36946609    -0.14000
C982        C  0.21282460  0.27990866  0.37776463     0.08100
C983        C  0.19608497  0.29253563  0.35547974    -0.14000
C984        C  0.20196709  0.28701520  0.32605181    -0.14000
C985        C  0.22480860  0.26869843  0.31784353     0.08100
C986        C  0.24126995  0.25560623  0.33990482    -0.14000
H987        H  0.24864188  0.25085545  0.38577367     0.12100
H988        H  0.17830582  0.30691840  0.36070416     0.12100
H989        H  0.18881784  0.29729741  0.30964793     0.12100
H990        H  0.25881063  0.24107905  0.33421723     0.12100
C991        C  0.22546229  0.30478980  0.65179228    -0.14000
C992        C  0.21491191  0.28432751  0.63163564     0.08100
C993        C  0.20616355  0.25716573  0.64223873    -0.14000
C994        C  0.20772516  0.25093818  0.67219667    -0.14000
C995        C  0.21843322  0.27157329  0.69220901     0.08100
C996        C  0.22738292  0.29847133  0.68139009    -0.14000
H997        H  0.23259779  0.32589012  0.64461620     0.12100
H998        H  0.19771562  0.24095988  0.62748064     0.12100
H999        H  0.20124084  0.22971637  0.67962957     0.12100
H1000       H  0.23599332  0.31482808  0.69585833     0.12100
C1001       C  0.11071264  0.46103988  0.47814665    -0.14000
C1002       C  0.12123995  0.44981886  0.50434131     0.08100
C1003       C  0.10726474  0.45749805  0.53032117    -0.14000
C1004       C  0.08194729  0.47401879  0.52984470    -0.14000
C1005       C  0.07017269  0.48319435  0.50339621     0.08100
C1006       C  0.08537565  0.47747093  0.47766280    -0.14000
H1007       H  0.12135525  0.45620907  0.45779595     0.12100
H1008       H  0.11481938  0.44946032  0.55092252     0.12100
H1009       H  0.07086833  0.47837329  0.55009512     0.12100
H1010       H  0.07707958  0.48463707  0.45698145     0.12100
C1011       C  0.02459262  0.92683268  0.54261030    -0.14000
C1012       C  0.99826925  0.93772393  0.53212390     0.08100
C1013       C  0.97287826  0.92158178  0.53632401    -0.14000
C1014       C  0.97366513  0.89556688  0.55160814    -0.14000
C1015       C  0.99984004  0.88522644  0.56317055     0.08100
C1016       C  0.02537788  0.90091348  0.55793584    -0.14000
H1017       H  0.04454584  0.93877842  0.53976441     0.12100
H1018       H  0.95225923  0.92936995  0.52838257     0.12100
H1019       H  0.95359951  0.88398157  0.55480437     0.12100
H1020       H  0.04601189  0.89375690  0.56626011     0.12100
C1021       C  0.96541709  0.11853869  0.46703917    -0.14000
C1022       C  0.99198181  0.10484706  0.47251374     0.08100
C1023       C  0.01774388  0.12018906  0.46779524    -0.14000
C1024       C  0.01705385  0.14787796  0.45594835    -0.14000
C1025       C  0.99057670  0.16077307  0.44826723     0.08100
C1026       C  0.96470911  0.14626789  0.45515227    -0.14000
H1027       H  0.94515520  0.10748194  0.47104988     0.12100
H1028       H  0.03856899  0.11045616  0.47237720     0.12100
H1029       H  0.03746518  0.15846210  0.45175446     0.12100
H1030       H  0.94384020  0.15567886  0.45034365     0.12100
C1031       C  0.97342907  0.97687147  0.40386541    -0.14000
C1032       C  0.99831463  0.98876468  0.41666519     0.08100
C1033       C  0.02515085  0.98532744  0.40272510    -0.14000
C1034       C  0.02746346  0.96808022  0.37795203    -0.14000
C1035       C  0.00300420  0.95398874  0.36669639     0.08100
C1036       C  0.97574923  0.95963152  0.37903784    -0.14000
H1037       H  0.95241183  0.97935830  0.41400660     0.12100
H1038       H  0.04464889  0.99465050  0.41181882     0.12100
H1039       H  0.04864934  0.96460437  0.36848093     0.12100
H1040       H  0.95646844  0.94915335  0.37084176     0.12100
C1041       C  0.12526402  0.26135363  0.72321932    -0.14000
C1042       C  0.11246461  0.23551998  0.73288297     0.08100
C1043       C  0.13071197  0.21414314  0.74468627    -0.14000
C1044       C  0.16066538  0.21793920  0.74620362    -0.14000
C1045       C  0.17376514  0.24333969  0.73618919     0.08100
C1046       C  0.15560974  0.26522791  0.72486971    -0.14000
H1047       H  0.11196589  0.27821309  0.71389265     0.12100
H1048       H  0.12181659  0.19408010  0.75277937     0.12100
H1049       H  0.17359107  0.20069451  0.75528462     0.12100
H1050       H  0.16478361  0.28555002  0.71779684     0.12100
C1051       C  0.83988093  0.22372719  0.69802681    -0.14000
C1052       C  0.85957328  0.23929801  0.71562357     0.08100
C1053       C  0.84842460  0.26065461  0.73433386    -0.14000
C1054       C  0.81832217  0.26509367  0.73651330    -0.14000
C1055       C  0.79879339  0.24859287  0.71979787     0.08100
C1056       C  0.80990487  0.22833890  0.70005972    -0.14000
H1057       H  0.84762680  0.20736930  0.68301233     0.12100
H1058       H  0.86281856  0.27292597  0.74821915     0.12100
H1059       H  0.81017919  0.28114864  0.75165683     0.12100
H1060       H  0.79535442  0.21549829  0.68685341     0.12100
C1061       C  0.96555113  0.06367256  0.62641062    -0.14000
C1062       C  0.99086009  0.07477838  0.63915315     0.08100
C1063       C  0.01740103  0.07116094  0.62464018    -0.14000
C1064       C  0.01831214  0.05849520  0.59722440    -0.14000
C1065       C  0.99274444  0.04913751  0.58377422     0.08100
C1066       C  0.96645931  0.05109948  0.59890762    -0.14000
H1067       H  0.94482720  0.06545038  0.63721013     0.12100
H1068       H  0.03742775  0.07914600  0.63370167     0.12100
H1069       H  0.03896256  0.05696974  0.58617754     0.12100
H1070       H  0.94646954  0.04358926  0.58923111     0.12100
C1071       C  0.35052672  0.24275597  0.29954632    -0.14000
C1072       C  0.36950237  0.23514211  0.27669899     0.08100
C1073       C  0.35720687  0.22931544  0.24940583    -0.14000
C1074       C  0.32683742  0.23059195  0.24541816    -0.14000
C1075       C  0.30806685  0.23810400  0.26849984     0.08100
C1076       C  0.32049243  0.24442883  0.29546462    -0.14000
H1077       H  0.35892797  0.24785220  0.32083440     0.12100
H1078       H  0.37096181  0.22328804  0.23134496     0.12100
H1079       H  0.31803769  0.22633341  0.22409501     0.12100
H1080       H  0.30693402  0.25081068  0.31354199     0.12100
C1081       C  0.52216070  0.12612968  0.44538484    -0.14000
C1082       C  0.49688751  0.13794701  0.43338342     0.08100
C1083       C  0.47018114  0.12450914  0.43903437    -0.14000
C1084       C  0.46911545  0.09844996  0.45413721    -0.14000
C1085       C  0.49471180  0.08538301  0.46391654     0.08100
C1086       C  0.52109360  0.10007012  0.46047181    -0.14000
H1087       H  0.54298251  0.13630754  0.44207532     0.12100
H1088       H  0.45020308  0.13303263  0.43037334     0.12100
H1089       H  0.44841347  0.08779287  0.45674845     0.12100
H1090       H  0.54114645  0.09077990  0.46824821     0.12100
C1091       C  0.66233681  0.26051722  0.24028622    -0.14000
C1092       C  0.68411476  0.24398350  0.25384029     0.08100
C1093       C  0.67563211  0.22231501  0.27311947    -0.14000
C1094       C  0.64620632  0.21742912  0.27895743    -0.14000
C1095       C  0.62414036  0.23412031  0.26582464     0.08100
C1096       C  0.63269369  0.25549821  0.24598556    -0.14000
H1097       H  0.66832665  0.27737881  0.22521810     0.12100
H1098       H  0.69183383  0.20923670  0.28383485     0.12100
H1099       H  0.64085819  0.20035034  0.29395160     0.12100
H1100       H  0.61657394  0.26884354  0.23550865     0.12100
C1101       C  0.83062755  0.26226715  0.24450198    -0.14000
C1102       C  0.80827990  0.24981882  0.26112954     0.08100
C1103       C  0.81599714  0.23302073  0.28507078    -0.14000
C1104       C  0.84520820  0.22943158  0.29272378    -0.14000
C1105       C  0.86776555  0.24268222  0.27682012     0.08100
C1106       C  0.86001092  0.25877887  0.25223450    -0.14000
H1107       H  0.82526763  0.27546565  0.22596000     0.12100
H1108       H  0.79935499  0.22292172  0.29809497     0.12100
H1109       H  0.85001526  0.21634478  0.31146035     0.12100
H1110       H  0.87654566  0.26939676  0.23951612     0.12100
C1111       C  0.62135730  0.48613644  0.04319869    -0.14000
C1112       C  0.63534594  0.51231988  0.05005893     0.08100
C1113       C  0.62225681  0.53850069  0.04166473    -0.14000
C1114       C  0.59503030  0.53851322  0.02850283    -0.14000
C1115       C  0.58042390  0.51234726  0.02327135     0.08100
C1116       C  0.59421961  0.48616328  0.03003988    -0.14000
H1117       H  0.63076079  0.46547230  0.04876066     0.12100
H1118       H  0.63247919  0.55911431  0.04602151     0.12100
H1119       H  0.58510695  0.55905506  0.02314743     0.12100
H1120       H  0.58367075  0.46560318  0.02599398     0.12100
C1121       C  0.75725183  0.33967673  0.20389879    -0.14000
C1122       C  0.73574296  0.32468121  0.21950717     0.08100
C1123       C  0.71296947  0.34132685  0.23158606    -0.14000
C1124       C  0.71152152  0.37163795  0.22765823    -0.14000
C1125       C  0.73273258  0.38619510  0.21144944     0.08100
C1126       C  0.75547129  0.36973868  0.19953607    -0.14000
H1127       H  0.77583101  0.32829693  0.19520706     0.12100
H1128       H  0.69586312  0.33093609  0.24368403     0.12100
H1129       H  0.69322829  0.38353905  0.23635973     0.12100
H1130       H  0.77187317  0.38021698  0.18650312     0.12100
C1131       C  0.78815825  0.71685671  0.17536893    -0.14000
C1132       C  0.77463059  0.74242017  0.18482852     0.08100
C1133       C  0.76436214  0.76175390  0.16360896    -0.14000
C1134       C  0.76592992  0.75474939  0.13375227    -0.14000
C1135       C  0.77791119  0.72822889  0.12437692     0.08100
C1136       C  0.78978635  0.70990538  0.14577345    -0.14000
H1137       H  0.79681374  0.70175962  0.19099960     0.12100
H1138       H  0.75384853  0.78171170  0.17021242     0.12100
H1139       H  0.75672152  0.76953155  0.11815656     0.12100
H1140       H  0.80009745  0.68969446  0.13984102     0.12100
C1141       C  0.72948313  0.69082992  0.20228175    -0.14000
C1142       C  0.74646935  0.69791719  0.22641329     0.08100
C1143       C  0.75733735  0.67511833  0.24341617    -0.14000
C1144       C  0.75187938  0.64592201  0.23619230    -0.14000
C1145       C  0.73565905  0.63872166  0.21145646     0.08100
C1146       C  0.72423147  0.66173986  0.19487383    -0.14000
H1147       H  0.72052607  0.70783774  0.18894355     0.12100
H1148       H  0.77108666  0.67985164  0.26173201     0.12100
H1149       H  0.76123134  0.62902446  0.24937562     0.12100
H1150       H  0.71116082  0.65741159  0.17593866     0.12100
C1151       C  0.83542126  0.80001636  0.25665691    -0.14000
C1152       C  0.82317034  0.77427789  0.26718836     0.08100
C1153       C  0.84209267  0.75409890  0.28028853    -0.14000
C1154       C  0.87216749  0.75970957  0.28278309    -0.14000
C1155       C  0.88408528  0.78576427  0.27247356     0.08100
C1156       C  0.86512112  0.80567232  0.25934212    -0.14000
H1157       H  0.82206775  0.81611430  0.24625518     0.12100
H1158       H  0.83379064  0.73363127  0.28798629     0.12100
H1159       H  0.88596921  0.74392174  0.29317571     0.12100
H1160       H  0.87329962  0.82589836  0.25089248     0.12100
C1161       C  0.78123590  0.27087696  0.84131134    -0.14000
C1162       C  0.75973738  0.28067751  0.86076105     0.08100
C1163       C  0.73254449  0.28815943  0.84926920    -0.14000
C1164       C  0.72732220  0.28617697  0.81909833    -0.14000
C1165       C  0.74902428  0.27629590  0.79979374     0.08100
C1166       C  0.77591823  0.26849598  0.81151836    -0.14000
H1167       H  0.80244137  0.26482476  0.84921764     0.12100
H1168       H  0.71559705  0.29609235  0.86347074     0.12100
H1169       H  0.70609188  0.29174900  0.81092045     0.12100
H1170       H  0.79306206  0.26050806  0.79761727     0.12100
C1171       C  0.79063445  0.26497640  0.13466954    -0.14000
C1172       C  0.76931774  0.27472989  0.11509984     0.08100
C1173       C  0.74300667  0.28488174  0.12684419    -0.14000
C1174       C  0.73849679  0.28550765  0.15720584    -0.14000
C1175       C  0.76010444  0.27584544  0.17656376     0.08100
C1176       C  0.78613336  0.26554942  0.16468334    -0.14000
H1177       H  0.81106674  0.25653813  0.12683577     0.12100
H1178       H  0.72611996  0.29267984  0.11264540     0.12100
H1179       H  0.71787004  0.29299759  0.16554247     0.12100
H1180       H  0.80321542  0.25777238  0.17864883     0.12100
C1181       C  0.60097401  0.02836264  0.96125727    -0.14000
C1182       C  0.58648740  0.00190828  0.96480133     0.08100
C1183       C  0.59955774  0.97634667  0.95454104    -0.14000
C1184       C  0.62559324  0.97750656  0.93916772    -0.14000
C1185       C  0.63898288  0.00427294  0.93377423     0.08100
C1186       C  0.62698423  0.02951188  0.94598683    -0.14000
H1187       H  0.59170632  0.04838965  0.96936636     0.12100
H1188       H  0.58903303  0.95558742  0.95721639     0.12100
H1189       H  0.63425469  0.95758767  0.93025602     0.12100
H1190       H  0.63709978  0.05039170  0.94288735     0.12100
C1191       C  0.46358842  0.97876374  0.90001574    -0.14000
C1192       C  0.47048407  0.00436701  0.91500444     0.08100
C1193       C  0.46302133  0.03110970  0.90276130    -0.14000
C1194       C  0.44727432  0.03216454  0.87704035    -0.14000
C1195       C  0.43851406  0.00649316  0.86307133     0.08100
C1196       C  0.44782401  0.97980588  0.87428318    -0.14000
H1197       H  0.46938366  0.95782130  0.90873019     0.12100
H1198       H  0.46838385  0.05126202  0.91359678     0.12100
H1199       H  0.44119651  0.05316445  0.86877238     0.12100
H1200       H  0.44196848  0.95955455  0.86402018     0.12100
C1201       C  0.74469438  0.14843110  0.24071712    -0.14000
C1202       C  0.71860426  0.13743217  0.22941933     0.08100
C1203       C  0.69864826  0.15771985  0.21800843    -0.14000
C1204       C  0.70396032  0.18761041  0.21874367    -0.14000
C1205       C  0.72943660  0.19859246  0.23088659     0.08100
C1206       C  0.75005544  0.17859972  0.24133509    -0.14000
H1207       H  0.76071548  0.13382864  0.24954275     0.12100
H1208       H  0.67855124  0.15082767  0.20831764     0.12100
H1209       H  0.68794113  0.20221128  0.20988199     0.12100
H1210       H  0.77003153  0.18639983  0.25081140     0.12100
C1211       C  0.75237588  0.87296959  0.24910473    -0.14000
C1212       C  0.72750357  0.88232295  0.23430458     0.08100
C1213       C  0.71040094  0.86092717  0.22041003    -0.14000
C1214       C  0.71708703  0.83134433  0.22224164    -0.14000
C1215       C  0.74123697  0.82198862  0.23784797     0.08100
C1216       C  0.75911112  0.84315319  0.25086158    -0.14000
H1217       H  0.76604563  0.88854494  0.26010842     0.12100
H1218       H  0.69148867  0.86686487  0.20803667     0.12100
H1219       H  0.70313522  0.81567914  0.21170439     0.12100
H1220       H  0.77774071  0.83653616  0.26335895     0.12100
C1221       C  0.56302643  0.97373828  0.11768207    -0.14000
C1222       C  0.56731825  0.00000512  0.13264963     0.08100
C1223       C  0.55466992  0.02537420  0.12175219    -0.14000
C1224       C  0.53965608  0.02488253  0.09562622    -0.14000
C1225       C  0.53674970  0.99897366  0.07986281     0.08100
C1226       C  0.54784289  0.97322798  0.09152222    -0.14000
H1227       H  0.57230684  0.95373059  0.12545074     0.12100
H1228       H  0.55687972  0.04586931  0.13298682     0.12100
H1229       H  0.53097064  0.04502017  0.08741198     0.12100
H1230       H  0.54579992  0.95289308  0.07989978     0.12100
C1231       C  0.89473256  0.53599733  0.02277193    -0.14000
C1232       C  0.91261352  0.53576261  0.99816088     0.08100
C1233       C  0.90253665  0.54843246  0.97251010    -0.14000
C1234       C  0.87555555  0.56200368  0.97175676    -0.14000
C1235       C  0.85803516  0.56315596  0.99665237     0.08100
C1236       C  0.86766240  0.54947469  0.02198937    -0.14000
H1237       H  0.90180995  0.52609305  0.04275239     0.12100
H1238       H  0.91584975  0.54858860  0.95318466     0.12100
H1239       H  0.86904644  0.57245980  0.95191246     0.12100
H1240       H  0.85453808  0.54964986  0.04142558     0.12100
C1241       C  0.95446646  0.40655834  0.96971595    -0.14000
C1242       C  0.95887798  0.41995802  0.99670286     0.08100
C1243       C  0.94841258  0.40642057  0.02180435    -0.14000
C1244       C  0.93249452  0.38078547  0.01976157    -0.14000
C1245       C  0.92672545  0.36826129  0.99256751     0.08100
C1246       C  0.93862798  0.38095587  0.96768397    -0.14000
H1247       H  0.96254454  0.41627786  0.95001160     0.12100
H1248       H  0.95158821  0.41617308  0.04294674     0.12100
H1249       H  0.92365948  0.37163058  0.03938144     0.12100
H1250       H  0.93508755  0.37155737  0.94646193     0.12100
C1251       C  0.21376935  0.73917712  0.15355598    -0.14000
C1252       C  0.23501782  0.72818820  0.13449704     0.08100
C1253       C  0.26209427  0.72069373  0.14629695    -0.14000
C1254       C  0.26737422  0.72372507  0.17641254    -0.14000
C1255       C  0.24583081  0.73463647  0.19538654     0.08100
C1256       C  0.21913840  0.74256284  0.18325313    -0.14000
H1257       H  0.19267477  0.74530479  0.14541529     0.12100
H1258       H  0.27888467  0.71190284  0.13241111     0.12100
H1259       H  0.28850803  0.71807665  0.18476985     0.12100
H1260       H  0.20210503  0.75137547  0.19674654     0.12100
C1261       C  0.25257678  0.72576967  0.86771428    -0.14000
C1262       C  0.22620579  0.73386422  0.88070465     0.08100
C1263       C  0.20424049  0.74492781  0.86260882    -0.14000
C1264       C  0.20831532  0.74770668  0.83259712    -0.14000
C1265       C  0.23426857  0.73887824  0.81941768     0.08100
C1266       C  0.25645256  0.72801064  0.83742397    -0.14000
H1267       H  0.26983091  0.71690842  0.88081189     0.12100
H1268       H  0.18363001  0.75148099  0.87173949     0.12100
H1269       H  0.19090311  0.75642032  0.81962106     0.12100
H1270       H  0.27698924  0.72154732  0.82805915     0.12100
C1271       C  0.05482282  0.62260038  0.98224010    -0.14000
C1272       C  0.06739119  0.63133202  0.00861107     0.08100
C1273       C  0.06053024  0.61594427  0.03387698    -0.14000
C1274       C  0.04299215  0.59143116  0.03251553    -0.14000
C1275       C  0.03194460  0.58173370  0.00587866     0.08100
C1276       C  0.03740018  0.59795782  0.98086348    -0.14000
H1277       H  0.05907528  0.63417824  0.96240463     0.12100
H1278       H  0.06949274  0.62201481  0.05464228     0.12100
H1279       H  0.03910076  0.57939901  0.05220099     0.12100
H1280       H  0.02891504  0.59114586  0.96006312     0.12100
C1281       C  0.78218277  0.72079955  0.67457290    -0.14000
C1282       C  0.76612955  0.74449554  0.68474658     0.08100
C1283       C  0.75213791  0.76234727  0.66443742    -0.14000
C1284       C  0.75374405  0.75634067  0.63452009    -0.14000
C1285       C  0.76885357  0.73190249  0.62430933     0.08100
C1286       C  0.78343586  0.71452217  0.64478014    -0.14000
H1287       H  0.79307834  0.70669374  0.68971936     0.12100
H1288       H  0.73947849  0.78071671  0.67185271     0.12100
H1289       H  0.74212685  0.77003358  0.61953321     0.12100
H1290       H  0.79557906  0.69566877  0.63779151     0.12100
C1291       C  0.76772417  0.71163703  0.35001310    -0.14000
C1292       C  0.77430652  0.73299370  0.37094953     0.08100
C1293       C  0.78262545  0.76054434  0.36090160    -0.14000
C1294       C  0.78432183  0.76619468  0.33076017    -0.14000
C1295       C  0.77762677  0.74444346  0.31014693     0.08100
C1296       C  0.76944802  0.71722904  0.32044095    -0.14000
H1297       H  0.76038451  0.69036014  0.35627753     0.12100
H1298       H  0.78783797  0.77758457  0.37622261     0.12100
H1299       H  0.78984934  0.78777354  0.32358214     0.12100
H1300       H  0.76336469  0.70018782  0.30555558     0.12100
C1301       C  0.86198793  0.56266279  0.47133985    -0.14000
C1302       C  0.84775585  0.57022923  0.49727755     0.08100
C1303       C  0.86142221  0.56409730  0.52373757    -0.14000
C1304       C  0.88922473  0.55233678  0.52422789    -0.14000
C1305       C  0.90398606  0.54628055  0.49830382     0.08100
C1306       C  0.88985506  0.55094417  0.47184890    -0.14000
H1307       H  0.85204422  0.56642407  0.45051892     0.12100
H1308       H  0.85121790  0.56915046  0.54421995     0.12100
H1309       H  0.89940731  0.54863135  0.54499197     0.12100
H1310       H  0.90051189  0.54603856  0.45149513     0.12100
C1311       C  0.26510566  0.85968154  0.21218253    -0.14000
C1312       C  0.27622378  0.87927901  0.23290457     0.08100
C1313       C  0.28547060  0.86795305  0.25958424    -0.14000
C1314       C  0.28419073  0.83779503  0.26492320    -0.14000
C1315       C  0.27335325  0.81827525  0.24385081     0.08100
C1316       C  0.26355941  0.82985280  0.21758885    -0.14000
H1317       H  0.25766443  0.86745577  0.19140467     0.12100
H1318       H  0.29440822  0.88224811  0.27593794     0.12100
H1319       H  0.29141333  0.82973562  0.28566642     0.12100
H1320       H  0.25505732  0.81572973  0.20085445     0.12100
C1321       C  0.38246629  0.02837677  0.05446073    -0.14000
C1322       C  0.37062651  0.00257738  0.06530012     0.08100
C1323       C  0.38308439  0.97603619  0.05674834    -0.14000
C1324       C  0.40822015  0.97546267  0.03990524    -0.14000
C1325       C  0.42135300  0.00140005  0.03121396     0.08100
C1326       C  0.40760083  0.02779492  0.03769287    -0.14000
H1327       H  0.37313691  0.04921257  0.05983212     0.12100
H1328       H  0.37438085  0.95564791  0.06411870     0.12100
H1329       H  0.41810623  0.95474421  0.03490862     0.12100
H1330       H  0.41691821  0.04815780  0.03085947     0.12100
C1331       C  0.25921618  0.15114188  0.20948526    -0.14000
C1332       C  0.27118958  0.13271281  0.23056510     0.08100
C1333       C  0.27911736  0.14506036  0.25731526    -0.14000
C1334       C  0.27579931  0.17513263  0.26240589    -0.14000
C1335       C  0.26404774  0.19358399  0.24106121     0.08100
C1336       C  0.25531821  0.18087450  0.21478473    -0.14000
H1337       H  0.25273227  0.14246158  0.18864722     0.12100
H1338       H  0.28859682  0.13164339  0.27395813     0.12100
H1339       H  0.28201126  0.18389016  0.28328546     0.12100
H1340       H  0.24563568  0.19390063  0.19803086     0.12100
C1341       C  0.20734572  0.30569530  0.85642429    -0.14000
C1342       C  0.21749076  0.28651478  0.87797225     0.08100
C1343       C  0.22802221  0.25938562  0.86858712    -0.14000
C1344       C  0.23014923  0.25265778  0.83867580    -0.14000
C1345       C  0.22196185  0.27287355  0.81733194     0.08100
C1346       C  0.20955172  0.29902610  0.82677845    -0.14000
H1347       H  0.19796085  0.32637328  0.86226417     0.12100
H1348       H  0.23575087  0.24385196  0.88425069     0.12100
H1349       H  0.23955439  0.23211919  0.83218396     0.12100
H1350       H  0.20192134  0.31468171  0.81119588     0.12100
C1351       C  0.11839766  0.45045030  0.03056534    -0.14000
C1352       C  0.13466215  0.44733825  0.00494108     0.08100
C1353       C  0.12258792  0.45695886  0.97875945    -0.14000
C1354       C  0.09441182  0.46790127  0.97799617    -0.14000
C1355       C  0.07777973  0.46969749  0.00343192     0.08100
C1356       C  0.09027904  0.46144305  0.02979288    -0.14000
H1357       H  0.12682310  0.44360455  0.05123500     0.12100
H1358       H  0.13456186  0.45548725  0.95866135     0.12100
H1359       H  0.08554878  0.47461858  0.95739939     0.12100
H1360       H  0.07813434  0.46293142  0.04982810     0.12100
C1361       C  0.21826043  0.30936457  0.15511861    -0.14000
C1362       C  0.22873058  0.29058342  0.13307135     0.08100
C1363       C  0.24171079  0.26450122  0.14186529    -0.14000
C1364       C  0.24468150  0.25789416  0.17157519    -0.14000
C1365       C  0.23468849  0.27701478  0.19338525     0.08100
C1366       C  0.22122415  0.30273212  0.18466046    -0.14000
H1367       H  0.20756465  0.32944505  0.14972595     0.12100
H1368       H  0.25022737  0.24953893  0.12584575     0.12100
H1369       H  0.25569668  0.23815828  0.17753002     0.12100
H1370       H  0.21296695  0.31779237  0.20074030     0.12100
C1371       C  0.23104303  0.33805234  0.75869450    -0.14000
C1372       C  0.24769359  0.31749771  0.77380193     0.08100
C1373       C  0.26761618  0.32730416  0.79436905    -0.14000
C1374       C  0.27042665  0.35701594  0.80020393    -0.14000
C1375       C  0.25322803  0.37782397  0.78579116     0.08100
C1376       C  0.23376081  0.36790415  0.76459369    -0.14000
H1377       H  0.21533875  0.33089626  0.74281720     0.12100
H1378       H  0.28083123  0.31193869  0.80608534     0.12100
H1379       H  0.28614837  0.36358107  0.81626528     0.12100
H1380       H  0.22009554  0.38308845  0.75318610     0.12100
C1381       C  0.27546837  0.64342589  0.76788769    -0.14000
C1382       C  0.25118338  0.63002217  0.78041561     0.08100
C1383       C  0.22801210  0.64762732  0.78938230    -0.14000
C1384       C  0.22907443  0.67783517  0.78604620    -0.14000
C1385       C  0.25364268  0.69151961  0.77416157     0.08100
C1386       C  0.27656996  0.67375704  0.76452497    -0.14000
H1387       H  0.29408508  0.63050169  0.76171607     0.12100
H1388       H  0.20937545  0.63803366  0.79984881     0.12100
H1389       H  0.21050741  0.69050505  0.79282154     0.12100
H1390       H  0.29572043  0.68334761  0.75508307     0.12100
C1391       C  0.37130255  0.48295787  0.94639049    -0.14000
C1392       C  0.35717170  0.50889829  0.93907237     0.08100
C1393       C  0.37028257  0.53536990  0.94657100    -0.14000
C1394       C  0.39761709  0.53589028  0.95937493    -0.14000
C1395       C  0.41237248  0.50996032  0.96508285     0.08100
C1396       C  0.39863175  0.48349246  0.95915565    -0.14000
H1397       H  0.36182697  0.46210772  0.94152700     0.12100
H1398       H  0.35998277  0.55582228  0.94181299     0.12100
H1399       H  0.40751492  0.55664654  0.96403565     0.12100
H1400       H  0.40930031  0.46311600  0.96367224     0.12100
C1401       C  0.36909207  0.76737335  0.29005647    -0.14000
C1402       C  0.38312787  0.78237755  0.26763305     0.08100
C1403       C  0.36605024  0.79328368  0.24499900    -0.14000
C1404       C  0.33595947  0.78930109  0.24453454    -0.14000
C1405       C  0.32149189  0.77504353  0.26722899     0.08100
C1406       C  0.33866245  0.76378092  0.28986930    -0.14000
H1407       H  0.38148562  0.75939923  0.30823182     0.12100
H1408       H  0.37610674  0.80523267  0.22755890     0.12100
H1409       H  0.32412267  0.79716826  0.22598416     0.12100
H1410       H  0.32859683  0.75253935  0.30772598     0.12100
C1411       C  0.65865933  0.80519277  0.28244770    -0.14000
C1412       C  0.63739271  0.78631788  0.27091957     0.08100
C1413       C  0.64712559  0.76131297  0.25628756    -0.14000
C1414       C  0.67704547  0.75616197  0.25227613    -0.14000
C1415       C  0.69799760  0.77593011  0.26257533     0.08100
C1416       C  0.68836886  0.80014370  0.27827706    -0.14000
H1417       H  0.65247349  0.82428352  0.29463817     0.12100
H1418       H  0.63166193  0.74622160  0.24717245     0.12100
H1419       H  0.68383814  0.73711525  0.24024739     0.12100
H1420       H  0.70385356  0.81537977  0.28713615     0.12100
C1421       C  0.52426961  0.96049805  0.36424132    -0.14000
C1422       C  0.49946164  0.94866915  0.35119961     0.08100
C1423       C  0.47257463  0.95200266  0.36516726    -0.14000
C1424       C  0.47095674  0.96488292  0.39256425    -0.14000
C1425       C  0.49617688  0.97460856  0.40647690     0.08100
C1426       C  0.52267583  0.97318138  0.39164843    -0.14000
H1427       H  0.54520552  0.95905274  0.35379983     0.12100
H1428       H  0.45294191  0.94339715  0.35577449     0.12100
H1429       H  0.45015556  0.96600621  0.40336484     0.12100
H1430       H  0.54240278  0.98104300  0.40158660     0.12100
C1431       C  0.78732572  0.29173924  0.63822811    -0.14000
C1432       C  0.77070574  0.27927087  0.61567681     0.08100
C1433       C  0.74513100  0.26468028  0.62345859    -0.14000
C1434       C  0.73727525  0.26158552  0.65287457    -0.14000
C1435       C  0.75484053  0.27283218  0.67521551     0.08100
C1436       C  0.77959983  0.28847126  0.66742340    -0.14000
H1437       H  0.80671856  0.30391087  0.63352335     0.12100
H1438       H  0.73169334  0.25487112  0.60692358     0.12100
H1439       H  0.71800843  0.24939016  0.65824929     0.12100
H1440       H  0.79327618  0.29789405  0.68399832     0.12100
C1441       C  0.79222232  0.29597773  0.34195493    -0.14000
C1442       C  0.77582715  0.28077115  0.36280795     0.08100
C1443       C  0.75195390  0.26458494  0.35301041    -0.14000
C1444       C  0.74558354  0.26269320  0.32316161    -0.14000
C1445       C  0.76294679  0.27684982  0.30247920     0.08100
C1446       C  0.78598562  0.29391166  0.31229236    -0.14000
H1447       H  0.81038040  0.30926529  0.34842936     0.12100
H1448       H  0.73888311  0.25257193  0.36825275     0.12100
H1449       H  0.72773706  0.24921625  0.31609441     0.12100
H1450       H  0.79961234  0.30512347  0.29690195     0.12100
C1451       C  0.94148825  0.38883296  0.51947021    -0.14000
C1452       C  0.93207071  0.37723001  0.49288604     0.08100
C1453       C  0.93699624  0.39313539  0.46746447    -0.14000
C1454       C  0.94953366  0.42060829  0.46882693    -0.14000
C1455       C  0.95741464  0.43277309  0.49560984     0.08100
C1456       C  0.95387488  0.41634600  0.52083528    -0.14000
H1457       H  0.93869915  0.37706187  0.53945111     0.12100
H1458       H  0.93032843  0.38497190  0.44653457     0.12100
H1459       H  0.95224568  0.43265880  0.44895802     0.12100
H1460       H  0.96019050  0.42494904  0.54175669     0.12100
loop_ 
_geom_bond_atom_site_label_1 
_geom_bond_atom_site_label_2 
_geom_bond_distance 
_geom_bond_site_symmetry_2 
_ccdc_geom_bond_type 
N1            N2   1.324       .  A
N1            C5   1.365       .  A
N1           Cu9   2.172       .  S
N2            C3   1.339       .  A
N2           Cu8   2.053       .  S
C3            C4   1.380       .  A
C3            H6   1.081       .  S
C4            C5   1.409       .  A
C4         C1432   1.509       .  S
C5            H7   1.082       .  S
Cu8          N11   2.051       .  S
Cu9          N19   2.172       .  S
Cu10         N12   2.051       .  S
Cu10         N18   2.052       .  S
N11          N12   1.314       .  A
N11          C15   1.341       .  A
N12          C13   1.343       .  A
C13          C14   1.390       .  A
C13          H16   1.081       .  S
C14          C15   1.389       .  A
C14        C1452   1.484       .  S
C15          H17   1.081       .  S
N18          N19   1.325       .  A
N18          C22   1.338       .  A
N19          C20   1.365       .  A
C20          C21   1.408       .  A
C20          H23   1.082       .  S
C21          C22   1.378       .  A
C21        C1442   1.505       .  S
C22          H24   1.081       .  S
N25          N26   1.324       .  A
N25          C29   1.368       .  A
N25         Cu33   2.185       .  S
N26          C27   1.338       .  A
N26         Cu32   2.044       .  S
C27          C28   1.378       .  A
C27          H30   1.081       .  S
C28          C29   1.413       .  A
C28        C1412   1.511       .  S
C29          H31   1.082       .  S
Cu32         N35   2.044       .  S
Cu33         N43   2.186       .  S
Cu34         N36   2.048       .  S
Cu34         N42   2.048       .  S
N35          N36   1.313       .  A
N35          C39   1.339       .  A
N36          C37   1.343       .  A
C37          C38   1.389       .  A
C37          H40   1.081       .  S
C38          C39   1.387       .  A
C38        C1422   1.480       .  S
C39          H41   1.081       .  S
N42          N43   1.327       .  A
N42          C46   1.339       .  A
N43          C44   1.367       .  A
C44          C45   1.407       .  A
C44          H47   1.082       .  S
C45          C46   1.372       .  A
C45        C1402   1.498       .  S
C46          H48   1.082       .  S
N49          N50   1.324       .  A
N49          C53   1.364       .  A
N49         Cu57   2.169       .  S
N50          C51   1.337       .  A
N50         Cu56   2.042       .  S
C51          C52   1.376       .  A
C51          H54   1.081       .  S
C52          C53   1.408       .  A
C52        C1375   1.503       .  S
C53          H55   1.082       .  S
Cu56         N59   2.043       .  S
Cu57         N67   2.170       .  S
Cu58         N60   2.049       .  S
Cu58         N66   2.050       .  S
N59          N60   1.313       .  A
N59          C63   1.340       .  A
N60          C61   1.342       .  A
C61          C62   1.390       .  A
C61          H64   1.081       .  S
C62          C63   1.389       .  A
C62        C1392   1.483       .  S
C63          H65   1.081       .  S
N66          N67   1.327       .  A
N66          C70   1.340       .  A
N67          C68   1.364       .  A
C68          C69   1.403       .  A
C68          H71   1.082       .  S
C69          C70   1.370       .  A
C69        C1382   1.490       .  S
C70          H72   1.082       .  S
N73          N74   1.325       .  A
N73          C77   1.368       .  A
N73         Cu81   2.193       .  S
N74          C75   1.339       .  A
N74         Cu80   2.048       .  S
C75          C76   1.378       .  A
C75          H78   1.081       .  S
C76          C77   1.414       .  A
C76        C1362   1.514       .  S
C77          H79   1.082       .  S
Cu80         N83   2.047       .  S
Cu81         N91   2.193   1_554  S
Cu82         N84   2.050       .  S
Cu82         N90   2.052       .  S
N83          N84   1.313   1_554  A
N83          C87   1.341       .  A
N84          C85   1.342       .  A
C85          C86   1.390   1_556  A
C85          H88   1.081       .  S
C86          C87   1.389       .  A
C86        C1352   1.484       .  S
C87          H89   1.080       .  S
N90          N91   1.325       .  A
N90          C94   1.339       .  A
N91          C92   1.369       .  A
C92          C93   1.413       .  A
C92          H95   1.082       .  S
C93          C94   1.379       .  A
C93        C1342   1.516       .  S
C94          H96   1.081       .  S
N97          N98   1.326       .  A
N97         C101   1.366       .  A
N97        Cu105   2.182       .  S
N98          C99   1.340       .  A
N98        Cu104   2.055       .  S
C99         C100   1.376       .  A
C99         H102   1.082       .  S
C100        C101   1.408       .  A
C100       C1332   1.504       .  S
C101        H103   1.082       .  S
Cu104       N107   2.054       .  S
Cu105       N115   2.182   1_545  S
Cu106       N108   2.052       .  S
Cu106       N114   2.053       .  S
N107        N108   1.314   1_545  A
N107        C111   1.342       .  A
N108        C109   1.342       .  A
C109        C110   1.390   1_565  A
C109        H112   1.081       .  S
C110        C111   1.390       .  A
C110       C1322   1.484       .  S
C111        H113   1.081       .  S
N114        N115   1.325       .  A
N114        C118   1.339       .  A
N115        C116   1.367       .  A
C116        C117   1.409       .  A
C116        H119   1.082       .  S
C117        C118   1.376       .  A
C117       C1312   1.506       .  S
C118        H120   1.082       .  S
N121        N122   1.327       .  A
N121        C125   1.364       .  A
N121       Cu129   2.174       .  S
N122        C123   1.339       .  A
N122       Cu128   2.052       .  S
C123        C124   1.375       .  A
C123        H126   1.082       .  S
C124        C125   1.406       .  A
C124       C1285   1.501       .  S
C125        H127   1.082       .  S
Cu128       N131   2.050       .  S
Cu129       N139   2.172       .  S
Cu130       N132   2.038       .  S
Cu130       N138   2.038       .  S
N131        N132   1.312       .  A
N131        C135   1.341       .  A
N132        C133   1.340       .  A
C133        C134   1.389       .  A
C133        H136   1.081       .  S
C134        C135   1.391       .  A
C134       C1302   1.484       .  S
C135        H137   1.080       .  S
N138        N139   1.323       .  A
N138        C142   1.333       .  A
N139        C140   1.368       .  A
C140        C141   1.411       .  A
C140        H143   1.082       .  S
C141        C142   1.376       .  A
C141       C1292   1.508       .  S
C142        H144   1.081       .  S
N145        N146   1.326       .  A
N145        C149   1.368       .  A
N145       Cu153   2.187       .  S
N146        C147   1.339       .  A
N146       Cu152   2.053       .  S
C147        C148   1.375       .  A
C147        H150   1.082       .  S
C148        C149   1.410       .  A
C148       C1252   1.506       .  S
C149        H151   1.082       .  S
Cu152       N155   2.051       .  S
Cu153       N163   2.187   1_554  S
Cu154       N156   2.044       .  S
Cu154       N162   2.044       .  S
N155        N156   1.313   1_554  A
N155        C159   1.342       .  A
N156        C157   1.341       .  A
C157        C158   1.388   1_556  A
C157        H160   1.081       .  S
C158        C159   1.390       .  A
C158       C1272   1.482       .  S
C159        H161   1.081       .  S
N162        N163   1.325       .  A
N162        C166   1.338       .  A
N163        C164   1.367       .  A
C164        C165   1.410       .  A
C164        H167   1.082       .  S
C165        C166   1.374       .  A
C165       C1262   1.505       .  S
C166        H168   1.082       .  S
O169       Cu177   1.998       .  S
O169        C179   1.277   1_554  A
O170       Cu177   1.997   1_455  S
O170        C180   1.277       .  A
O171       Cu177   2.006       .  S
O171        C181   1.278   1_554  A
O172       Cu177   2.004   1_455  S
O172        C182   1.278       .  A
O173       Cu178   1.999   1_455  S
O173        C182   1.277   1_556  A
O174       Cu178   1.998       .  S
O174        C181   1.277       .  A
O175       Cu178   2.000   1_455  S
O175        C180   1.278   1_556  A
O176       Cu178   2.004       .  S
O176        C179   1.278       .  A
Cu177      Cu178   2.373   1_554  S
C179       C1242   1.476       .  S
C180       C1275   1.474       .  S
C181       C1232   1.475       .  S
C182       C1355   1.476       .  S
N183        N184   1.325       .  A
N183        C187   1.368       .  A
N183       Cu191   2.190   1_565  S
N184        C185   1.336       .  A
N184       Cu190   2.043       .  S
C185        C186   1.375       .  A
C185        H188   1.081       .  S
C186        C187   1.413       .  A
C186       C1212   1.510       .  S
C187        H189   1.082       .  S
Cu190       N193   2.045       .  S
Cu191       N201   2.189       .  S
Cu192       N194   2.044       .  S
Cu192       N200   2.042       .  S
N193        N194   1.312   1_565  A
N193        C197   1.343       .  A
N194        C195   1.340       .  A
C195        C196   1.388       .  A
C195        H198   1.081       .  S
C196        C197   1.389   1_545  A
C196       C1222   1.480       .  S
C197        H199   1.081       .  S
N200        N201   1.323       .  A
N200        C204   1.336       .  A
N201        C202   1.369       .  A
C202        C203   1.415       .  A
C202        H205   1.082       .  S
C203        C204   1.378       .  A
C203       C1202   1.515       .  S
C204        H206   1.080       .  S
O207       Cu215   1.994   1_554  S
O207        C217   1.277   1_545  A
O208       Cu215   1.996       .  S
O208        C218   1.277       .  A
O209       Cu215   1.996   1_554  S
O209        C219   1.277       .  A
O210       Cu215   1.996       .  S
O210        C220   1.277       .  A
O211       Cu216   2.005       .  S
O211        C220   1.278   1_565  A
O212       Cu216   2.008   1_554  S
O212        C219   1.278   1_565  A
O213       Cu216   2.005       .  S
O213        C218   1.278   1_565  A
O214       Cu216   2.007   1_554  S
O214        C217   1.278       .  A
Cu215      Cu216   2.372   1_545  S
C217       C1225   1.475       .  S
C218       C1192   1.476       .  S
C219       C1325   1.477       .  S
C220       C1182   1.476       .  S
N221        N222   1.325       .  A
N221        C225   1.368       .  A
N221       Cu229   2.186   1_554  S
N222        C223   1.337       .  A
N222       Cu228   2.050       .  S
C223        C224   1.377       .  A
C223        H226   1.081       .  S
C224        C225   1.411       .  A
C224       C1172   1.510       .  S
C225        H227   1.082       .  S
Cu228       N231   2.051       .  S
Cu229       N239   2.185       .  S
Cu230       N232   2.043       .  S
Cu230       N238   2.043       .  S
N231        N232   1.314   1_554  A
N231        C235   1.344       .  A
N232        C233   1.339       .  A
C233        C234   1.386       .  A
C233        H236   1.081       .  S
C234        C235   1.389   1_556  A
C234       C1245   1.479       .  S
C235        H237   1.081       .  S
N238        N239   1.325       .  A
N238        C242   1.338       .  A
N239        C240   1.368       .  A
C240        C241   1.410       .  A
C240        H243   1.082       .  S
C241        C242   1.374       .  A
C241       C1162   1.505       .  S
C242        H244   1.082       .  S
C245        H246   1.111       .  S
C245        C251   1.540       .  S
C245        C250   1.554       .  S
C245        C249   1.546       .  S
C247        H248   1.109       .  S
C247        C253   1.560       .  S
C247        C252   1.549       .  S
C247        C254   1.557       .  S
C249        C252   1.383       .  D
C249       C1415   1.506       .  S
C250        C253   1.386       .  D
C250       C1295   1.505       .  S
C251        C254   1.381       .  D
C251       C1142   1.504       .  S
C252       C1215   1.503       .  S
C253       C1152   1.517       .  S
C254       C1132   1.508       .  S
N255        N256   1.326       .  A
N255        C259   1.364       .  A
N255       Cu263   2.174       .  S
N256        C257   1.342       .  A
N256       Cu262   2.057       .  S
C257        C258   1.374       .  A
C257        H260   1.082       .  S
C258        C259   1.405       .  A
C258       C1125   1.497       .  S
C259        H261   1.082       .  S
Cu262       N265   2.056       .  S
Cu263       N273   2.174       .  S
Cu264       N266   2.051       .  S
Cu264       N272   2.052       .  S
N265        N266   1.315       .  A
N265        C269   1.341       .  A
N266        C267   1.343       .  A
C267        C268   1.390       .  A
C267        H270   1.081       .  S
C268        C269   1.390       .  A
C268       C1112   1.485       .  S
C269        H271   1.080       .  S
N272        N273   1.325       .  A
N272        C276   1.340       .  A
N273        C274   1.364       .  A
C274        C275   1.408       .  A
C274        H277   1.082       .  S
C275        C276   1.379       .  A
C275       C1145   1.507       .  S
C276        H278   1.081       .  S
C279        H280   1.110       .  S
C279        C285   1.543       .  S
C279        C284   1.550       .  S
C279        C283   1.555       .  S
C281        H282   1.109       .  S
C281        C287   1.547       .  S
C281        C286   1.557       .  S
C281        C288   1.551       .  S
C283        C286   1.389       .  D
C283       C1175   1.511       .  S
C284        C287   1.383       .  D
C284       C1205   1.506       .  S
C285        C288   1.378       .  D
C285       C1102   1.504       .  S
C286       C1122   1.520       .  S
C287       C1092   1.502       .  S
C288       C1445   1.499       .  S
N289        N290   1.325       .  A
N289        C293   1.367       .  A
N289       Cu297   2.187       .  S
N290        C291   1.338       .  A
N290       Cu296   2.051       .  S
C291        C292   1.377       .  A
C291        H294   1.081       .  S
C292        C293   1.412       .  A
C292       C1095   1.510       .  S
C293        H295   1.082       .  S
Cu296       N299   2.051       .  S
Cu297       N307   2.186       .  S
Cu298       N300   2.043       .  S
Cu298       N306   2.043       .  S
N299        N300   1.313       .  A
N299        C303   1.342       .  A
N300        C301   1.341       .  A
C301        C302   1.388       .  A
C301        H304   1.081       .  S
C302        C303   1.390       .  A
C302       C1082   1.479       .  S
C303        H305   1.081       .  S
N306        N307   1.324       .  A
N306        C310   1.337       .  A
N307        C308   1.368       .  A
C308        C309   1.412       .  A
C308        H311   1.082       .  S
C309        C310   1.375       .  A
C309       C1072   1.508       .  S
C310        H312   1.082       .  S
N313        N314   1.324       .  A
N313        C317   1.367       .  A
N313       Cu321   2.173   1_455  S
N314        C315   1.333       .  A
N314       Cu320   2.037       .  S
C315        C316   1.372       .  A
C315        H318   1.082       .  S
C316        C317   1.409       .  A
C316       C1042   1.501       .  S
C317        H319   1.082       .  S
Cu320       N323   2.037       .  S
Cu321       N331   2.173       .  S
Cu322       N324   2.038       .  S
Cu322       N330   2.039       .  S
N323        N324   1.311   1_455  A
N323        C327   1.340       .  A
N324        C325   1.339       .  A
C325        C326   1.388       .  A
C325        H328   1.081       .  S
C326        C327   1.389   1_655  A
C326       C1062   1.478       .  S
C327        H329   1.081       .  S
N330        N331   1.325       .  A
N330        C334   1.336       .  A
N331        C332   1.365       .  A
C332        C333   1.408       .  A
C332        H335   1.082       .  S
C333        C334   1.373       .  A
C333       C1052   1.499       .  S
C334        H336   1.082       .  S
O337       Cu345   1.987       .  S
O337        C347   1.276   1_455  A
O338       Cu345   1.994       .  S
O338        C348   1.277   1_455  A
O339       Cu345   1.997       .  S
O339        C349   1.277   1_455  A
O340       Cu345   2.001   1_565  S
O340        C350   1.278   1_455  A
O341       Cu346   2.003   1_565  S
O341        C350   1.278       .  A
O342       Cu346   2.004       .  S
O342        C349   1.278       .  A
O343       Cu346   2.003       .  S
O343        C348   1.278       .  A
O344       Cu346   1.997       .  S
O344        C347   1.277       .  A
Cu345      Cu346   2.373   1_455  S
C347       C1065   1.470       .  S
C348       C1032   1.474   1_545  S
C349       C1022   1.476       .  S
C350       C1012   1.477       .  S
N351        N352   1.327       .  A
N351        C355   1.366       .  A
N351       Cu359   2.181       .  S
N352        C353   1.340       .  A
N352       Cu358   2.060       .  S
C353        C354   1.377       .  A
C353        H356   1.082       .  S
C354        C355   1.408       .  A
C354        C992   1.506       .  S
C355        H357   1.082       .  S
Cu358       N361   2.058       .  S
Cu359       N369   2.181       .  S
Cu360       N362   2.045       .  S
Cu360       N368   2.045       .  S
N361        N362   1.315       .  A
N361        C365   1.344       .  A
N362        C363   1.339       .  A
C363        C364   1.386       .  A
C363        H366   1.081       .  S
C364        C365   1.391       .  A
C364       C1002   1.480       .  S
C365        H367   1.081       .  S
N368        N369   1.323       .  A
N368        C372   1.340       .  A
N369        C370   1.366       .  A
C370        C371   1.411       .  A
C370        H373   1.082       .  S
C371        C372   1.378       .  A
C371        C982   1.510       .  S
C372        H374   1.081       .  S
N375        N376   1.324       .  A
N375        C379   1.368       .  A
N375       Cu383   2.185       .  S
N376        C377   1.337       .  A
N376       Cu382   2.044       .  S
C377        C378   1.378       .  A
C377        H380   1.080       .  S
C378        C379   1.413       .  A
C378        C972   1.513       .  S
C379        H381   1.082       .  S
Cu382       N385   2.044       .  S
Cu383       N393   2.186   1_545  S
Cu384       N386   2.050       .  S
Cu384       N392   2.050       .  S
N385        N386   1.313   1_545  A
N385        C389   1.340       .  A
N386        C387   1.342       .  A
C387        C388   1.390   1_565  A
C387        H390   1.081       .  S
C388        C389   1.389       .  A
C388       C1195   1.483       .  S
C389        H391   1.081       .  S
N392        N393   1.325       .  A
N392        C396   1.338       .  A
N393        C394   1.367       .  A
C394        C395   1.411       .  A
C394        H397   1.082       .  S
C395        C396   1.377       .  A
C395        C962   1.510       .  S
C396        H398   1.081       .  S
C399        H400   1.110       .  S
C399        C405   1.543       .  S
C399        C404   1.550       .  S
C399        C403   1.551       .  S
C401        H402   1.109       .  S
C401        C407   1.548       .  S
C401        C406   1.560       .  S
C401        C408   1.552       .  S
C403        C406   1.384       .  D
C403        C995   1.510       .  S
C404        C407   1.383       .  D
C404        C952   1.508       .  S
C405        C408   1.381       .  D
C405       C1372   1.493       .  S
C406       C1045   1.507       .  S
C407        C975   1.505       .  S
C408       C1345   1.514       .  S
N409        N410   1.325       .  A
N409        C413   1.367       .  A
N409       Cu417   2.189       .  S
N410        C411   1.339       .  A
N410       Cu416   2.047       .  S
C411        C412   1.378       .  A
C411        H414   1.081       .  S
C412        C413   1.413       .  A
C412        C942   1.512       .  S
C413        H415   1.082       .  S
Cu416       N419   2.046       .  S
Cu417       N427   2.189       .  S
Cu418       N420   2.050       .  S
Cu418       N426   2.051       .  S
N419        N420   1.314       .  A
N419        C423   1.341       .  A
N420        C421   1.341       .  A
C421        C422   1.389       .  A
C421        H424   1.081       .  S
C422        C423   1.388       .  A
C422        C932   1.480       .  S
C423        H425   1.081       .  S
N426        N427   1.324       .  A
N426        C430   1.338       .  A
N427        C428   1.368       .  A
C428        C429   1.414       .  A
C428        H431   1.082       .  S
C429        C430   1.380       .  A
C429        C955   1.517       .  S
C430        H432   1.080       .  S
C433        H434   1.110       .  S
C433        C439   1.549       .  S
C433        C438   1.557       .  S
C433        C437   1.554       .  S
C435        H436   1.110       .  S
C435        C441   1.551       .  S
C435        C440   1.540       .  S
C435        C442   1.549       .  S
C437        C440   1.378       .  D
C437       C1435   1.504       .  S
C438        C441   1.384       .  D
C438        C922   1.505       .  S
C439        C442   1.380       .  D
C439        C945   1.507       .  S
C440       C1055   1.495       .  S
C441       C1165   1.509       .  S
C442        C912   1.500       .  S
N443        N444   1.326       .  A
N443        C447   1.365       .  A
N443       Cu451   2.172       .  S
N444        C445   1.337       .  A
N444       Cu450   2.050       .  S
C445        C446   1.375       .  A
C445        H448   1.082       .  S
C446        C447   1.406       .  A
C446        C925   1.500       .  S
C447        H449   1.082       .  S
Cu450       N453   2.050       .  S
Cu451       N461   2.172       .  S
Cu452       N454   2.041       .  S
Cu452       N460   2.041       .  S
N453        N454   1.313       .  A
N453        C457   1.343       .  A
N454        C455   1.339       .  A
C455        C456   1.387       .  A
C455        H458   1.081       .  S
C456        C457   1.389       .  A
C456        C902   1.479       .  S
C457        H459   1.082       .  S
N460        N461   1.324       .  A
N460        C464   1.338       .  A
N461        C462   1.365       .  A
C462        C463   1.408       .  A
C462        H465   1.082       .  S
C463        C464   1.374       .  A
C463        C895   1.500       .  S
C464        H466   1.082       .  S
C467        H468   1.109       .  S
C467        C473   1.550       .  S
C467        C472   1.556       .  S
C467        C471   1.561       .  S
C469        H470   1.111       .  S
C469        C475   1.540       .  S
C469        C474   1.551       .  S
C469        C476   1.548       .  S
C471        C474   1.385       .  D
C471        C872   1.511       .  S
C472        C475   1.381       .  D
C472        C882   1.509       .  S
C473        C476   1.381       .  D
C473        C862   1.510       .  S
C474        C852   1.511       .  S
C475       C1282   1.496       .  S
C476        C892   1.499       .  S
N477        N478   1.325       .  A
N477        C481   1.368       .  A
N477       Cu485   2.189       .  S
N478        C479   1.340       .  A
N478       Cu484   2.053       .  S
C479        C480   1.377       .  A
C479        H482   1.082       .  S
C480        C481   1.411       .  A
C480        C855   1.509       .  S
C481        H483   1.082       .  S
Cu484       N487   2.053       .  S
Cu485       N495   2.189       .  S
Cu486       N488   2.052       .  S
Cu486       N494   2.052       .  S
N487        N488   1.314       .  A
N487        C491   1.342       .  A
N488        C489   1.342       .  A
C489        C490   1.389       .  A
C489        H492   1.081       .  S
C490        C491   1.390       .  A
C490        C842   1.483       .  S
C491        H493   1.081       .  S
N494        N495   1.326       .  A
N494        C498   1.340       .  A
N495        C496   1.368       .  A
C496        C497   1.411       .  A
C496        H499   1.082       .  S
C497        C498   1.376       .  A
C497        C832   1.509       .  S
C498        H500   1.082       .  S
C501        H502   1.111       .  S
C501        C507   1.551       .  S
C501        C506   1.550       .  S
C501        C505   1.547       .  S
C503        H504   1.110       .  S
C503        C509   1.553       .  S
C503        C508   1.552       .  S
C503        C510   1.554       .  S
C505        C508   1.383       .  D
C505        C812   1.504       .  S
C506        C509   1.386       .  D
C506        C965   1.504       .  S
C507        C510   1.381       .  D
C507       C1265   1.510       .  S
C508        C822   1.506       .  S
C509        C835   1.511       .  S
C510       C1385   1.511       .  S
N511        N512   1.325       .  A
N511        C515   1.363       .  A
N511       Cu519   2.174       .  S
N512        C513   1.341       .  A
N512       Cu518   2.050       .  S
C513        C514   1.379       .  A
C513        H516   1.081       .  S
C514        C515   1.408       .  A
C514        C802   1.506       .  S
C515        H517   1.082       .  S
Cu518       N521   2.049       .  S
Cu519       N529   2.175   1_455  S
Cu520       N522   2.056       .  S
Cu520       N528   2.057       .  S
N521        N522   1.316   1_455  A
N521        C525   1.340       .  A
N522        C523   1.343       .  A
C523        C524   1.387   1_655  A
C523        H526   1.081       .  S
C524        C525   1.385       .  A
C524       C1035   1.475       .  S
C525        H527   1.082       .  S
N528        N529   1.325       .  A
N528        C532   1.340       .  A
N529        C530   1.366       .  A
C530        C531   1.408       .  A
C530        H533   1.082       .  S
C531        C532   1.379       .  A
C531       C1155   1.508       .  S
C532        H534   1.082       .  S
C535        H536   1.109       .  S
C535        C541   1.557       .  S
C535        C540   1.554       .  S
C535        C539   1.553       .  S
C537        H538   1.109       .  S
C537        C543   1.554       .  S
C537        C542   1.542       .  S
C537        C544   1.554       .  S
C539        C542   1.379       .  D
C539        C785   1.504       .  S
C540        C543   1.387       .  D
C540       C1405   1.517       .  S
C541        C544   1.384       .  D
C541        C792   1.509       .  S
C542        C805   1.502       .  S
C543       C1315   1.513       .  S
C544       C1255   1.514       .  S
N545        N546   1.326       .  A
N545        C549   1.365       .  A
N545       Cu553   2.182       .  S
N546        C547   1.341       .  A
N546       Cu552   2.056       .  S
C547        C548   1.377       .  A
C547        H550   1.082       .  S
C548        C549   1.408       .  A
C548        C762   1.506       .  S
C549        H551   1.082       .  S
Cu552       N555   2.053       .  S
Cu553       N563   2.182       .  S
Cu554       N556   2.051       .  S
Cu554       N562   2.052       .  S
N555        N556   1.315       .  A
N555        C559   1.342       .  A
N556        C557   1.342       .  A
C557        C558   1.389       .  A
C557        H560   1.081       .  S
C558        C559   1.390       .  A
C558        C772   1.484       .  S
C559        H561   1.081       .  S
N562        N563   1.325       .  A
N562        C566   1.340       .  A
N563        C564   1.366       .  A
C564        C565   1.410       .  A
C564        H567   1.082       .  S
C565        C566   1.378       .  A
C565        C795   1.508       .  S
C566        H568   1.082       .  S
N569        N570   1.324       .  A
N569        C573   1.366       .  A
N569       Cu577   2.176       .  S
N570        C571   1.337       .  A
N570       Cu576   2.049       .  S
C571        C572   1.379       .  A
C571        H574   1.080       .  S
C572        C573   1.410       .  A
C572        C825   1.510       .  S
C573        H575   1.082       .  S
Cu576       N579   2.050       .  S
Cu577       N587   2.176       .  S
Cu578       N580   2.051       .  S
Cu578       N586   2.052       .  S
N579        N580   1.314       .  A
N579        C583   1.343       .  A
N580        C581   1.342       .  A
C581        C582   1.387       .  A
C581        H584   1.082       .  S
C582        C583   1.388       .  A
C582        C752   1.479       .  S
C583        H585   1.081       .  S
N586        N587   1.325       .  A
N586        C590   1.338       .  A
N587        C588   1.365       .  A
C588        C589   1.409       .  A
C588        H591   1.082       .  S
C589        C590   1.380       .  A
C589        C782   1.510       .  S
C590        H592   1.081       .  S
N593        N594   1.325       .  A
N593        C597   1.366       .  A
N593       Cu601   2.185   1_455  S
N594        C595   1.340       .  A
N594       Cu600   2.051       .  S
C595        C596   1.379       .  A
C595        H598   1.081       .  S
C596        C597   1.412       .  A
C596        C815   1.513       .  S
C597        H599   1.082       .  S
Cu600       N603   2.049       .  S
Cu601       N611   2.185       .  S
Cu602       N604   2.052       .  S
Cu602       N610   2.052       .  S
N603        N604   1.314   1_455  A
N603        C607   1.341       .  A
N604        C605   1.343       .  A
C605        C606   1.390   1_655  A
C605        H608   1.081       .  S
C606        C607   1.389       .  A
C606       C1015   1.484   1_455  S
C607        H609   1.081       .  S
N610        N611   1.324       .  A
N610        C614   1.338       .  A
N611        C612   1.368       .  A
C612        C613   1.413       .  A
C612        H615   1.082       .  S
C613        C614   1.381       .  A
C613        C885   1.516       .  S
C614        H616   1.080       .  S
N617        N618   1.325       .  A
N617        C621   1.365       .  A
N617       Cu625   2.174       .  S
N618        C619   1.339       .  A
N618       Cu624   2.048       .  S
C619        C620   1.376       .  A
C619        H622   1.082       .  S
C620        C621   1.408       .  A
C620        C915   1.504       .  S
C621        H623   1.082       .  S
Cu624       N627   2.048       .  S
Cu625       N635   2.174   1_545  S
Cu626       N628   2.049       .  S
Cu626       N634   2.049       .  S
N627        N628   1.314   1_545  A
N627        C631   1.340       .  A
N628        C629   1.343       .  A
C629        C630   1.389   1_565  A
C629        H632   1.081       .  S
C630        C631   1.387       .  A
C630       C1185   1.480       .  S
C631        H633   1.081       .  S
N634        N635   1.325       .  A
N634        C638   1.336       .  A
N635        C636   1.366       .  A
C636        C637   1.408       .  A
C636        H639   1.082       .  S
C637        C638   1.375       .  A
C637        C875   1.502       .  S
C638        H640   1.082       .  S
N641        N642   1.325       .  A
N641        C645   1.367       .  A
N641       Cu649   2.184   1_455  S
N642        C643   1.341       .  A
N642       Cu648   2.059       .  S
C643        C644   1.381       .  A
C643        H646   1.081       .  S
C644        C645   1.411       .  A
C644        C742   1.514       .  S
C645        H647   1.082       .  S
Cu648       N651   2.056       .  S
Cu649       N659   2.184       .  S
Cu650       N652   2.048       .  S
Cu650       N658   2.049       .  S
N651        N652   1.314   1_455  A
N651        C655   1.341       .  A
N652        C653   1.341       .  A
C653        C654   1.390       .  A
C653        H656   1.081       .  S
C654        C655   1.391   1_655  A
C654       C1025   1.485       .  S
C655        H657   1.080       .  S
N658        N659   1.325       .  A
N658        C662   1.339       .  A
N659        C660   1.366       .  A
C660        C661   1.410       .  A
C660        H663   1.082       .  S
C661        C662   1.378       .  A
C661       C1105   1.509       .  S
C662        H664   1.081       .  S
C665        H666   1.111       .  S
C665        C671   1.547       .  S
C665        C670   1.552       .  S
C665        C669   1.551       .  S
C667        H668   1.110       .  S
C667        C673   1.559       .  S
C667        C672   1.554       .  S
C667        C674   1.558       .  S
C669        C672   1.384       .  D
C669        C765   1.505       .  S
C670        C673   1.382       .  D
C670       C1075   1.509       .  S
C671        C674   1.382       .  D
C671        C985   1.506       .  S
C672       C1365   1.509       .  S
C673       C1335   1.513       .  S
C674        C745   1.511       .  S
N675        N676   1.325       .  A
N675        C679   1.368       .  A
N675       Cu683   2.187   1_554  S
N676        C677   1.339       .  A
N676       Cu682   2.051       .  S
C677        C678   1.379       .  A
C677        H680   1.081       .  S
C678        C679   1.412       .  A
C678       C1135   1.513       .  S
C679        H681   1.082       .  S
Cu682       N685   2.049       .  S
Cu683       N693   2.188       .  S
Cu684       N686   2.050       .  S
Cu684       N692   2.050       .  S
N685        N686   1.314   1_554  A
N685        C689   1.342       .  A
N686        C687   1.342       .  A
C687        C688   1.389       .  A
C687        H690   1.081       .  S
C688        C689   1.387   1_556  A
C688       C1235   1.480       .  S
C689        H691   1.082       .  S
N692        N693   1.325       .  A
N692        C696   1.339       .  A
N693        C694   1.367       .  A
C694        C695   1.412       .  A
C694        H697   1.082       .  S
C695        C696   1.378       .  A
C695        C865   1.513       .  S
C696        H698   1.081       .  S
O699       Cu707   2.001   1_554  S
O699        C709   1.278       .  A
O700       Cu707   1.996       .  S
O700        C710   1.277       .  A
O701       Cu707   1.996       .  S
O701        C711   1.276       .  A
O702       Cu707   1.995   1_554  S
O702        C712   1.277       .  A
O703       Cu708   2.006   1_554  S
O703        C712   1.278       .  A
O704       Cu708   2.002       .  S
O704        C711   1.278       .  A
O705       Cu708   2.004       .  S
O705        C710   1.278       .  A
O706       Cu708   2.004   1_554  S
O706        C709   1.278       .  A
Cu707      Cu708   2.373       .  S
C709       C1115   1.477       .  S
C710       C1395   1.475       .  S
C711        C905   1.472       .  S
C712        C775   1.476       .  S
O713       Cu721   1.999       .  S
O713        C723   1.277       .  A
O714       Cu721   2.001   1_565  S
O714        C724   1.277       .  A
O715       Cu721   2.003   1_565  S
O715        C725   1.278       .  A
O716       Cu721   2.006       .  S
O716        C726   1.278       .  A
O717       Cu722   1.995       .  S
O717        C726   1.277       .  A
O718       Cu722   1.998   1_565  S
O718        C725   1.277       .  A
O719       Cu722   1.998   1_565  S
O719        C724   1.278       .  A
O720       Cu722   1.998       .  S
O720        C723   1.277       .  A
Cu721      Cu722   2.373       .  S
C723        C935   1.474       .  S
C724       C1425   1.474       .  S
C725        C845   1.476       .  S
C726       C1085   1.475       .  S
O727       Cu735   2.001       .  S
O727        C737   1.277       .  A
O728       Cu735   2.001   1_455  S
O728        C738   1.277       .  A
O729       Cu735   2.004   1_455  S
O729        C739   1.278       .  A
O730       Cu735   2.003       .  S
O730        C740   1.278       .  A
O731       Cu736   1.999       .  S
O731        C740   1.277       .  A
O732       Cu736   1.994   1_455  S
O732        C739   1.276       .  A
O733       Cu736   2.003   1_455  S
O733        C738   1.278       .  A
O734       Cu736   2.003       .  S
O734        C737   1.278       .  A
Cu735      Cu736   2.373       .  S
C737       C1455   1.476       .  S
C738        C755   1.475       .  S
C739       C1005   1.475       .  S
C740       C1305   1.476       .  S
C741        C742   1.409       .  A
C741        C746   1.416       .  A
C741        H747   1.082       .  S
C742        C743   1.415       .  A
C743        C744   1.406       .  A
C743        H748   1.081       .  S
C744        C745   1.403       .  A
C744        H749   1.083       .  S
C745        C746   1.412       .  A
C746        H750   1.083       .  S
C751        C752   1.406       .  A
C751        C756   1.396       .  A
C751        H757   1.082       .  S
C752        C753   1.405       .  A
C753        C754   1.396       .  A
C753        H758   1.082       .  S
C754        C755   1.404       .  A
C754        H759   1.083       .  S
C755        C756   1.404       .  A
C756        H760   1.083       .  S
C761        C762   1.406       .  A
C761        C766   1.413       .  A
C761        H767   1.083       .  S
C762        C763   1.414       .  A
C763        C764   1.408       .  A
C763        H768   1.082       .  S
C764        C765   1.403       .  A
C764        H769   1.083       .  S
C765        C766   1.411       .  A
C766        H770   1.083       .  S
C771        C772   1.408       .  A
C771        C776   1.397       .  A
C771        H777   1.081       .  S
C772        C773   1.406       .  A
C773        C774   1.394       .  A
C773        H778   1.081       .  S
C774        C775   1.404       .  A
C774        H779   1.083       .  S
C775        C776   1.403       .  A
C776        H780   1.083       .  S
C781        C782   1.415       .  A
C781        C786   1.402       .  A
C781        H787   1.080       .  S
C782        C783   1.408       .  A
C783        C784   1.414       .  A
C783        H788   1.082       .  S
C784        C785   1.410       .  A
C784        H789   1.083       .  S
C785        C786   1.401       .  A
C786        H790   1.083       .  S
C791        C792   1.413       .  A
C791        C796   1.416       .  A
C791        H797   1.083       .  S
C792        C793   1.403       .  A
C793        C794   1.404       .  A
C793        H798   1.083       .  S
C794        C795   1.412       .  A
C794        H799   1.082       .  S
C795        C796   1.408       .  A
C796        H800   1.083       .  S
C801        C802   1.415       .  A
C801        C806   1.406       .  A
C801        H807   1.082       .  S
C802        C803   1.406       .  A
C803        C804   1.410       .  A
C803        H808   1.082       .  S
C804        C805   1.409       .  A
C804        H809   1.081       .  S
C805        C806   1.402       .  A
C806        H810   1.083       .  S
C811        C812   1.400       .  A
C811        C816   1.406       .  A
C811        H817   1.083       .  S
C812        C813   1.410       .  A
C813        C814   1.413       .  A
C813        H818   1.083       .  S
C814        C815   1.408       .  A
C814        H819   1.082       .  S
C815        C816   1.417       .  A
C816        H820   1.080       .  S
C821        C822   1.412       .  A
C821        C826   1.414       .  A
C821        H827   1.083       .  S
C822        C823   1.401       .  A
C823        C824   1.402       .  A
C823        H828   1.083       .  S
C824        C825   1.415       .  A
C824        H829   1.080       .  S
C825        C826   1.408       .  A
C826        H830   1.082       .  S
C831        C832   1.414       .  A
C831        C836   1.407       .  A
C831        H837   1.082       .  S
C832        C833   1.407       .  A
C833        C834   1.415       .  A
C833        H838   1.083       .  S
C834        C835   1.413       .  A
C834        H839   1.083       .  S
C835        C836   1.403       .  A
C836        H840   1.083       .  S
C841        C842   1.406       .  A
C841        C846   1.395       .  A
C841        H847   1.081       .  S
C842        C843   1.406       .  A
C843        C844   1.396       .  A
C843        H848   1.081       .  S
C844        C845   1.404       .  A
C844        H849   1.083       .  S
C845        C846   1.404       .  A
C846        H850   1.083       .  S
C851        C852   1.414       .  A
C851        C856   1.418       .  A
C851        H857   1.083       .  S
C852        C853   1.404       .  A
C853        C854   1.403       .  A
C853        H858   1.083       .  S
C854        C855   1.411       .  A
C854        H859   1.083       .  S
C855        C856   1.409       .  A
C856        H860   1.083       .  S
C861        C862   1.412       .  A
C861        C866   1.413       .  A
C861        H867   1.080       .  S
C862        C863   1.402       .  A
C863        C864   1.406       .  A
C863        H868   1.083       .  S
C864        C865   1.417       .  A
C864        H869   1.080       .  S
C865        C866   1.407       .  A
C866        H870   1.082       .  S
C871        C872   1.403       .  A
C871        C876   1.398       .  A
C871        H877   1.080       .  S
C872        C873   1.416       .  A
C873        C874   1.416       .  A
C873        H878   1.082       .  S
C874        C875   1.407       .  A
C874        H879   1.083       .  S
C875        C876   1.409       .  A
C876        H880   1.083       .  S
C881        C882   1.413       .  A
C881        C886   1.416       .  A
C881        H887   1.083       .  S
C882        C883   1.401       .  A
C883        C884   1.403       .  A
C883        H888   1.082       .  S
C884        C885   1.417       .  A
C884        H889   1.079       .  S
C885        C886   1.409       .  A
C886        H890   1.082       .  S
C891        C892   1.410       .  A
C891        C896   1.410       .  A
C891        H897   1.082       .  S
C892        C893   1.401       .  A
C893        C894   1.405       .  A
C893        H898   1.083       .  S
C894        C895   1.414       .  A
C894        H899   1.083       .  S
C895        C896   1.404       .  A
C896        H900   1.083       .  S
C901        C902   1.406       .  A
C901        C906   1.393       .  A
C901        H907   1.081       .  S
C902        C903   1.405       .  A
C903        C904   1.397       .  A
C903        H908   1.082       .  S
C904        C905   1.404       .  A
C904        H909   1.083       .  S
C905        C906   1.402       .  A
C906        H910   1.083       .  S
C911        C912   1.411       .  A
C911        C916   1.411       .  A
C911        H917   1.083       .  S
C912        C913   1.400       .  A
C913        C914   1.405       .  A
C913        H918   1.083       .  S
C914        C915   1.415       .  A
C914        H919   1.082       .  S
C915        C916   1.406       .  A
C916        H920   1.083       .  S
C921        C922   1.402       .  A
C921        C926   1.399       .  A
C921        H927   1.080       .  S
C922        C923   1.414       .  A
C923        C924   1.414       .  A
C923        H928   1.083       .  S
C924        C925   1.407       .  A
C924        H929   1.083       .  S
C925        C926   1.409       .  A
C926        H930   1.083       .  S
C931        C932   1.405       .  A
C931        C936   1.395       .  A
C931        H937   1.082       .  S
C932        C933   1.406       .  A
C933        C934   1.395       .  A
C933        H938   1.081       .  S
C934        C935   1.404       .  A
C934        H939   1.083       .  S
C935        C936   1.404       .  A
C936        H940   1.083       .  S
C941        C942   1.418       .  A
C941        C946   1.407       .  A
C941        H947   1.081       .  S
C942        C943   1.406       .  A
C943        C944   1.412       .  A
C943        H948   1.082       .  S
C944        C945   1.411       .  A
C944        H949   1.080       .  S
C945        C946   1.401       .  A
C946        H950   1.083       .  S
C951        C952   1.400       .  A
C951        C956   1.404       .  A
C951        H957   1.083       .  S
C952        C953   1.412       .  A
C953        C954   1.416       .  A
C953        H958   1.083       .  S
C954        C955   1.409       .  A
C954        H959   1.082       .  S
C955        C956   1.418       .  A
C956        H960   1.079       .  S
C961        C962   1.406       .  A
C961        C966   1.413       .  A
C961        H967   1.082       .  S
C962        C963   1.417       .  A
C963        C964   1.405       .  A
C963        H968   1.081       .  S
C964        C965   1.400       .  A
C964        H969   1.083       .  S
C965        C966   1.412       .  A
C966        H970   1.083       .  S
C971        C972   1.417       .  A
C971        C976   1.404       .  A
C971        H977   1.080       .  S
C972        C973   1.408       .  A
C973        C974   1.414       .  A
C973        H978   1.082       .  S
C974        C975   1.412       .  A
C974        H979   1.082       .  S
C975        C976   1.399       .  A
C976        H980   1.083       .  S
C981        C982   1.407       .  A
C981        C986   1.413       .  A
C981        H987   1.082       .  S
C982        C983   1.416       .  A
C983        C984   1.407       .  A
C983        H988   1.082       .  S
C984        C985   1.402       .  A
C984        H989   1.083       .  S
C985        C986   1.411       .  A
C986        H990   1.082       .  S
C991        C992   1.410       .  A
C991        C996   1.402       .  A
C991        H997   1.083       .  S
C992        C993   1.409       .  A
C993        C994   1.417       .  A
C993        H998   1.083       .  S
C994        C995   1.414       .  A
C994        H999   1.083       .  S
C995        C996   1.404       .  A
C996       H1000   1.082       .  S
C1001      C1002   1.406       .  A
C1001      C1006   1.394       .  A
C1001      H1007   1.082       .  S
C1002      C1003   1.405       .  A
C1003      C1004   1.396       .  A
C1003      H1008   1.081       .  S
C1004      C1005   1.405       .  A
C1004      H1009   1.083       .  S
C1005      C1006   1.403       .  A
C1006      H1010   1.083       .  S
C1011      C1012   1.403   1_455  A
C1011      C1016   1.394       .  A
C1011      H1017   1.083       .  S
C1012      C1013   1.404       .  A
C1013      C1014   1.397       .  A
C1013      H1018   1.083       .  S
C1014      C1015   1.407       .  A
C1014      H1019   1.081       .  S
C1015      C1016   1.407   1_655  A
C1016      H1020   1.080       .  S
C1021      C1022   1.404       .  A
C1021      C1026   1.396       .  A
C1021      H1027   1.083       .  S
C1022      C1023   1.403   1_655  A
C1023      C1024   1.394       .  A
C1023      H1028   1.083       .  S
C1024      C1025   1.407   1_455  A
C1024      H1029   1.080       .  S
C1025      C1026   1.408       .  A
C1026      H1030   1.081       .  S
C1031      C1032   1.404       .  A
C1031      C1036   1.396       .  A
C1031      H1037   1.083       .  S
C1032      C1033   1.404   1_655  A
C1033      C1034   1.394       .  A
C1033      H1038   1.083       .  S
C1034      C1035   1.404       .  A
C1034      H1039   1.083       .  S
C1035      C1036   1.405   1_455  A
C1036      H1040   1.082       .  S
C1041      C1042   1.407       .  A
C1041      C1046   1.416       .  A
C1041      H1047   1.083       .  S
C1042      C1043   1.410       .  A
C1043      C1044   1.397       .  A
C1043      H1048   1.082       .  S
C1044      C1045   1.401       .  A
C1044      H1049   1.082       .  S
C1045      C1046   1.415       .  A
C1046      H1050   1.082       .  S
C1051      C1052   1.415       .  A
C1051      C1056   1.404       .  A
C1051      H1057   1.082       .  S
C1052      C1053   1.404       .  A
C1053      C1054   1.409       .  A
C1053      H1058   1.083       .  S
C1054      C1055   1.410       .  A
C1054      H1059   1.083       .  S
C1055      C1056   1.398       .  A
C1056      H1060   1.083       .  S
C1061      C1062   1.406       .  A
C1061      C1066   1.394       .  A
C1061      H1067   1.082       .  S
C1062      C1063   1.406   1_655  A
C1063      C1064   1.392       .  A
C1063      H1068   1.080       .  S
C1064      C1065   1.403   1_455  A
C1064      H1069   1.083       .  S
C1065      C1066   1.403       .  A
C1066      H1070   1.083       .  S
C1071      C1072   1.413       .  A
C1071      C1076   1.403       .  A
C1071      H1077   1.082       .  S
C1072      C1073   1.408       .  A
C1073      C1074   1.416       .  A
C1073      H1078   1.083       .  S
C1074      C1075   1.414       .  A
C1074      H1079   1.083       .  S
C1075      C1076   1.401       .  A
C1076      H1080   1.082       .  S
C1081      C1082   1.404       .  A
C1081      C1086   1.395       .  A
C1081      H1087   1.082       .  S
C1082      C1083   1.406       .  A
C1083      C1084   1.395       .  A
C1083      H1088   1.081       .  S
C1084      C1085   1.403       .  A
C1084      H1089   1.083       .  S
C1085      C1086   1.405       .  A
C1086      H1090   1.083       .  S
C1091      C1092   1.411       .  A
C1091      C1096   1.414       .  A
C1091      H1097   1.083       .  S
C1092      C1093   1.399       .  A
C1093      C1094   1.404       .  A
C1093      H1098   1.083       .  S
C1094      C1095   1.416       .  A
C1094      H1099   1.081       .  S
C1095      C1096   1.407       .  A
C1096      H1100   1.082       .  S
C1101      C1102   1.411       .  A
C1101      C1106   1.413       .  A
C1101      H1107   1.083       .  S
C1102      C1103   1.401       .  A
C1103      C1104   1.405       .  A
C1103      H1108   1.083       .  S
C1104      C1105   1.416       .  A
C1104      H1109   1.081       .  S
C1105      C1106   1.407       .  A
C1106      H1110   1.082       .  S
C1111      C1112   1.406       .  A
C1111      C1116   1.394       .  A
C1111      H1117   1.080       .  S
C1112      C1113   1.408       .  A
C1113      C1114   1.398       .  A
C1113      H1118   1.081       .  S
C1114      C1115   1.404       .  A
C1114      H1119   1.083       .  S
C1115      C1116   1.403       .  A
C1116      H1120   1.083       .  S
C1121      C1122   1.411       .  A
C1121      C1126   1.406       .  A
C1121      H1127   1.081       .  S
C1122      C1123   1.414       .  A
C1123      C1124   1.414       .  A
C1123      H1128   1.081       .  S
C1124      C1125   1.406       .  A
C1124      H1129   1.083       .  S
C1125      C1126   1.405       .  A
C1126      H1130   1.083       .  S
C1131      C1132   1.402       .  A
C1131      C1136   1.404       .  A
C1131      H1137   1.083       .  S
C1132      C1133   1.412       .  A
C1133      C1134   1.416       .  A
C1133      H1138   1.083       .  S
C1134      C1135   1.409       .  A
C1134      H1139   1.082       .  S
C1135      C1136   1.415       .  A
C1136      H1140   1.081       .  S
C1141      C1142   1.401       .  A
C1141      C1146   1.406       .  A
C1141      H1147   1.083       .  S
C1142      C1143   1.409       .  A
C1143      C1144   1.410       .  A
C1143      H1148   1.080       .  S
C1144      C1145   1.405       .  A
C1144      H1149   1.082       .  S
C1145      C1146   1.416       .  A
C1146      H1150   1.081       .  S
C1151      C1152   1.406       .  A
C1151      C1156   1.403       .  A
C1151      H1157   1.081       .  S
C1152      C1153   1.416       .  A
C1153      C1154   1.418       .  A
C1153      H1158   1.082       .  S
C1154      C1155   1.409       .  A
C1154      H1159   1.083       .  S
C1155      C1156   1.409       .  A
C1156      H1160   1.083       .  S
C1161      C1162   1.410       .  A
C1161      C1166   1.402       .  A
C1161      H1167   1.083       .  S
C1162      C1163   1.408       .  A
C1163      C1164   1.417       .  A
C1163      H1168   1.083       .  S
C1164      C1165   1.414       .  A
C1164      H1169   1.083       .  S
C1165      C1166   1.403       .  A
C1166      H1170   1.082       .  S
C1171      C1172   1.413       .  A
C1171      C1176   1.401       .  A
C1171      H1177   1.082       .  S
C1172      C1173   1.409       .  A
C1173      C1174   1.417       .  A
C1173      H1178   1.082       .  S
C1174      C1175   1.414       .  A
C1174      H1179   1.083       .  S
C1175      C1176   1.402       .  A
C1176      H1180   1.082       .  S
C1181      C1182   1.404       .  A
C1181      C1186   1.394       .  A
C1181      H1187   1.083       .  S
C1182      C1183   1.404   1_545  A
C1183      C1184   1.397       .  A
C1183      H1188   1.083       .  S
C1184      C1185   1.406   1_565  A
C1184      H1189   1.081       .  S
C1185      C1186   1.405       .  A
C1186      H1190   1.082       .  S
C1191      C1192   1.403   1_565  A
C1191      C1196   1.396       .  A
C1191      H1197   1.083       .  S
C1192      C1193   1.404       .  A
C1193      C1194   1.395       .  A
C1193      H1198   1.083       .  S
C1194      C1195   1.406       .  A
C1194      H1199   1.081       .  S
C1195      C1196   1.407   1_545  A
C1196      H1200   1.081       .  S
C1201      C1202   1.408       .  A
C1201      C1206   1.415       .  A
C1201      H1207   1.082       .  S
C1202      C1203   1.418       .  A
C1203      C1204   1.402       .  A
C1203      H1208   1.079       .  S
C1204      C1205   1.399       .  A
C1204      H1209   1.083       .  S
C1205      C1206   1.413       .  A
C1206      H1210   1.083       .  S
C1211      C1212   1.407       .  A
C1211      C1216   1.414       .  A
C1211      H1217   1.083       .  S
C1212      C1213   1.417       .  A
C1213      C1214   1.403       .  A
C1213      H1218   1.081       .  S
C1214      C1215   1.398       .  A
C1214      H1219   1.083       .  S
C1215      C1216   1.412       .  A
C1216      H1220   1.082       .  S
C1221      C1222   1.407   1_565  A
C1221      C1226   1.398       .  A
C1221      H1227   1.081       .  S
C1222      C1223   1.405       .  A
C1223      C1224   1.393       .  A
C1223      H1228   1.081       .  S
C1224      C1225   1.403   1_545  A
C1224      H1229   1.083       .  S
C1225      C1226   1.404       .  A
C1226      H1230   1.083       .  S
C1231      C1232   1.404   1_554  A
C1231      C1236   1.397       .  A
C1231      H1237   1.083       .  S
C1232      C1233   1.404       .  A
C1233      C1234   1.395       .  A
C1233      H1238   1.083       .  S
C1234      C1235   1.406       .  A
C1234      H1239   1.081       .  S
C1235      C1236   1.405   1_556  A
C1236      H1240   1.082       .  S
C1241      C1242   1.403       .  A
C1241      C1246   1.394       .  A
C1241      H1247   1.083       .  S
C1242      C1243   1.406   1_556  A
C1243      C1244   1.397       .  A
C1243      H1248   1.083       .  S
C1244      C1245   1.405   1_554  A
C1244      H1249   1.082       .  S
C1245      C1246   1.405       .  A
C1246      H1250   1.082       .  S
C1251      C1252   1.409       .  A
C1251      C1256   1.402       .  A
C1251      H1257   1.083       .  S
C1252      C1253   1.409       .  A
C1253      C1254   1.418       .  A
C1253      H1258   1.083       .  S
C1254      C1255   1.415       .  A
C1254      H1259   1.082       .  S
C1255      C1256   1.404       .  A
C1256      H1260   1.081       .  S
C1261      C1262   1.406       .  A
C1261      C1266   1.414       .  A
C1261      H1267   1.083       .  S
C1262      C1263   1.413       .  A
C1263      C1264   1.405       .  A
C1263      H1268   1.083       .  S
C1264      C1265   1.403       .  A
C1264      H1269   1.082       .  S
C1265      C1266   1.414       .  A
C1266      H1270   1.083       .  S
C1271      C1272   1.407   1_556  A
C1271      C1276   1.396       .  A
C1271      H1277   1.081       .  S
C1272      C1273   1.406       .  A
C1273      C1274   1.394       .  A
C1273      H1278   1.081       .  S
C1274      C1275   1.403       .  A
C1274      H1279   1.083       .  S
C1275      C1276   1.403   1_554  A
C1276      H1280   1.083       .  S
C1281      C1282   1.399       .  A
C1281      C1286   1.405       .  A
C1281      H1287   1.083       .  S
C1282      C1283   1.409       .  A
C1283      C1284   1.409       .  A
C1283      H1288   1.083       .  S
C1284      C1285   1.405       .  A
C1284      H1289   1.083       .  S
C1285      C1286   1.415       .  A
C1286      H1290   1.082       .  S
C1291      C1292   1.411       .  A
C1291      C1296   1.393       .  A
C1291      H1297   1.081       .  S
C1292      C1293   1.410       .  A
C1293      C1294   1.420       .  A
C1293      H1298   1.083       .  S
C1294      C1295   1.414       .  A
C1294      H1299   1.083       .  S
C1295      C1296   1.398       .  A
C1296      H1300   1.079       .  S
C1301      C1302   1.407       .  A
C1301      C1306   1.396       .  A
C1301      H1307   1.081       .  S
C1302      C1303   1.406       .  A
C1303      C1304   1.394       .  A
C1303      H1308   1.080       .  S
C1304      C1305   1.403       .  A
C1304      H1309   1.083       .  S
C1305      C1306   1.404       .  A
C1306      H1310   1.083       .  S
C1311      C1312   1.411       .  A
C1311      C1316   1.403       .  A
C1311      H1317   1.083       .  S
C1312      C1313   1.408       .  A
C1313      C1314   1.417       .  A
C1313      H1318   1.083       .  S
C1314      C1315   1.415       .  A
C1314      H1319   1.083       .  S
C1315      C1316   1.404       .  A
C1316      H1320   1.083       .  S
C1321      C1322   1.406       .  A
C1321      C1326   1.395       .  A
C1321      H1327   1.081       .  S
C1322      C1323   1.407   1_545  A
C1323      C1324   1.397       .  A
C1323      H1328   1.081       .  S
C1324      C1325   1.404   1_565  A
C1324      H1329   1.083       .  S
C1325      C1326   1.404       .  A
C1326      H1330   1.083       .  S
C1331      C1332   1.410       .  A
C1331      C1336   1.404       .  A
C1331      H1337   1.083       .  S
C1332      C1333   1.407       .  A
C1333      C1334   1.415       .  A
C1333      H1338   1.083       .  S
C1334      C1335   1.415       .  A
C1334      H1339   1.083       .  S
C1335      C1336   1.405       .  A
C1336      H1340   1.080       .  S
C1341      C1342   1.416       .  A
C1341      C1346   1.405       .  A
C1341      H1347   1.081       .  S
C1342      C1343   1.409       .  A
C1343      C1344   1.417       .  A
C1343      H1348   1.082       .  S
C1344      C1345   1.413       .  A
C1344      H1349   1.083       .  S
C1345      C1346   1.403       .  A
C1346      H1350   1.082       .  S
C1351      C1352   1.407       .  A
C1351      C1356   1.395       .  A
C1351      H1357   1.080       .  S
C1352      C1353   1.406   1_554  A
C1353      C1354   1.396       .  A
C1353      H1358   1.081       .  S
C1354      C1355   1.405   1_556  A
C1354      H1359   1.083       .  S
C1355      C1356   1.403       .  A
C1356      H1360   1.083       .  S
C1361      C1362   1.417       .  A
C1361      C1366   1.407       .  A
C1361      H1367   1.081       .  S
C1362      C1363   1.407       .  A
C1363      C1364   1.414       .  A
C1363      H1368   1.082       .  S
C1364      C1365   1.412       .  A
C1364      H1369   1.080       .  S
C1365      C1366   1.401       .  A
C1366      H1370   1.083       .  S
C1371      C1372   1.409       .  A
C1371      C1376   1.409       .  A
C1371      H1377   1.083       .  S
C1372      C1373   1.397       .  A
C1373      C1374   1.403       .  A
C1373      H1378   1.083       .  S
C1374      C1375   1.416       .  A
C1374      H1379   1.081       .  S
C1375      C1376   1.405       .  A
C1376      H1380   1.082       .  S
C1381      C1382   1.407       .  A
C1381      C1386   1.411       .  A
C1381      H1387   1.083       .  S
C1382      C1383   1.404       .  A
C1383      C1384   1.405       .  A
C1383      H1388   1.083       .  S
C1384      C1385   1.412       .  A
C1384      H1389   1.082       .  S
C1385      C1386   1.409       .  A
C1386      H1390   1.082       .  S
C1391      C1392   1.407       .  A
C1391      C1396   1.394       .  A
C1391      H1397   1.081       .  S
C1392      C1393   1.406       .  A
C1393      C1394   1.395       .  A
C1393      H1398   1.081       .  S
C1394      C1395   1.403       .  A
C1394      H1399   1.083       .  S
C1395      C1396   1.404       .  A
C1396      H1400   1.083       .  S
C1401      C1402   1.407       .  A
C1401      C1406   1.416       .  A
C1401      H1407   1.083       .  S
C1402      C1403   1.406       .  A
C1403      C1404   1.403       .  A
C1403      H1408   1.083       .  S
C1404      C1405   1.409       .  A
C1404      H1409   1.081       .  S
C1405      C1406   1.414       .  A
C1406      H1410   1.082       .  S
C1411      C1412   1.416       .  A
C1411      C1416   1.405       .  A
C1411      H1417   1.081       .  S
C1412      C1413   1.407       .  A
C1413      C1414   1.414       .  A
C1413      H1418   1.082       .  S
C1414      C1415   1.412       .  A
C1414      H1419   1.083       .  S
C1415      C1416   1.400       .  A
C1416      H1420   1.083       .  S
C1421      C1422   1.405       .  A
C1421      C1426   1.393       .  A
C1421      H1427   1.082       .  S
C1422      C1423   1.407       .  A
C1423      C1424   1.397       .  A
C1423      H1428   1.081       .  S
C1424      C1425   1.404       .  A
C1424      H1429   1.083       .  S
C1425      C1426   1.403       .  A
C1426      H1430   1.083       .  S
C1431      C1432   1.415       .  A
C1431      C1436   1.403       .  A
C1431      H1437   1.081       .  S
C1432      C1433   1.408       .  A
C1433      C1434   1.414       .  A
C1433      H1438   1.082       .  S
C1434      C1435   1.411       .  A
C1434      H1439   1.083       .  S
C1435      C1436   1.401       .  A
C1436      H1440   1.083       .  S
C1441      C1442   1.415       .  A
C1441      C1446   1.403       .  A
C1441      H1447   1.081       .  S
C1442      C1443   1.407       .  A
C1443      C1444   1.412       .  A
C1443      H1448   1.083       .  S
C1444      C1445   1.410       .  A
C1444      H1449   1.083       .  S
C1445      C1446   1.399       .  A
C1446      H1450   1.083       .  S
C1451      C1452   1.406       .  A
C1451      C1456   1.395       .  A
C1451      H1457   1.081       .  S
C1452      C1453   1.407       .  A
C1453      C1454   1.396       .  A
C1453      H1458   1.081       .  S
C1454      C1455   1.404       .  A
C1454      H1459   1.083       .  S
C1455      C1456   1.403       .  A
C1456      H1460   1.083       .  S
