geometry optimzed in LAMMPS
_audit_creation_date              2020-12-01 
_audit_creation_method            'lammps2cif' 
_symmetry_space_group_name_H-M    'P1' 
_symmetry_Int_Tables_number       1 
_symmetry_cell_setting            triclinic 
loop_ 
_symmetry_equiv_pos_as_xyz 
  x,y,z 
_cell_length_a                    34.88825877 
_cell_length_b                    35.20536119996373 
_cell_length_c                    34.227816384330474 
_cell_angle_alpha                 89.95909500144234 
_cell_angle_beta                  90.19488040705124 
_cell_angle_gamma                 89.77944737217508 
loop_ 
_atom_site_label 
_atom_site_type_symbol 
_atom_site_fract_x 
_atom_site_fract_y 
_atom_site_fract_z 
_atom_site_charge 
C1          C  0.24577278  0.37735704  0.87751221     0.85400
C2          C  0.20716315  0.37715843  0.85125163    -0.54800
C3          C  0.20780165  0.35381820  0.81880213     0.08400
C4          C  0.24751407  0.33825757  0.81789616     0.19300
C5          C  0.25017525  0.33489477  0.88897389    -0.55500
C6          C  0.25026792  0.31158619  0.85721888     0.08500
C7          C  0.28341382  0.38180004  0.85017706    -0.55000
C8          C  0.28470687  0.35900920  0.81748543     0.09000
H9          H  0.18017731  0.38758607  0.86276009     0.13600
H10         H  0.24664929  0.34245266  0.78627899    -0.00700
H11         H  0.25381936  0.32443943  0.91853885     0.13900
H12         H  0.31020089  0.39172815  0.86267973     0.13700
C13         C  0.33990917  0.29280733  0.74120353     0.85400
C14         C  0.34551906  0.25605841  0.76883241    -0.54800
C15         C  0.32259009  0.25475929  0.80140636     0.08400
C16         C  0.30149556  0.29149631  0.80136348     0.19300
C17         C  0.29662291  0.29044179  0.73037271    -0.55500
C18         C  0.27373341  0.28902961  0.76266730     0.08500
C19         C  0.33954105  0.33148579  0.76698229    -0.55000
C20         C  0.31708012  0.33074239  0.80006511     0.09000
H21         H  0.35921215  0.23040370  0.75813103     0.13600
H22         H  0.30683771  0.29232012  0.83284295    -0.00700
H23         H  0.28550865  0.29011430  0.70073376     0.13900
H24         H  0.34425525  0.35877904  0.75310111     0.13700
C25         C  0.25936858  0.20094479  0.88046525     0.85400
C26         C  0.29737920  0.20132590  0.85327369    -0.54800
C27         C  0.29494153  0.22275987  0.81975094     0.08400
C28         C  0.25508029  0.23819969  0.81956757     0.19300
C29         C  0.25632886  0.24379033  0.89060207    -0.55500
C30         C  0.25365493  0.26604297  0.85802250     0.08500
C31         C  0.22127211  0.19477982  0.85379775    -0.55000
C32         C  0.21819546  0.21734117  0.82077666     0.09000
H33         H  0.32569858  0.19908267  0.86615482     0.13600
H34         H  0.25494639  0.23318485  0.78807932    -0.00700
H35         H  0.25652809  0.25505253  0.92008014     0.13900
H36         H  0.19625674  0.18036643  0.86509935     0.13700
C37         C  0.16122791  0.28137996  0.74249278     0.85400
C38         C  0.15599450  0.31895788  0.76921159    -0.54800
C39         C  0.17945589  0.32134123  0.80167599     0.08400
C40         C  0.20062183  0.28446766  0.80234588     0.19300
C41         C  0.20428352  0.28349765  0.73130020    -0.55500
C42         C  0.22768488  0.28583790  0.76316573     0.08500
C43         C  0.16202758  0.24341543  0.76967684    -0.55000
C44         C  0.18510478  0.24502490  0.80266291     0.09000
H45         H  0.14157773  0.34410212  0.75812027     0.13600
H46         H  0.19653687  0.28456723  0.83395828    -0.00700
H47         H  0.21491470  0.28306779  0.70156677     0.13900
H48         H  0.15685681  0.21573085  0.75689012     0.13700
C49         C  0.33603680  0.29521246  0.37767043     0.85400
C50         C  0.33600821  0.33355641  0.35112794    -0.54800
C51         C  0.31461602  0.33206834  0.31717417     0.08400
C52         C  0.29917804  0.29266075  0.31621332     0.19300
C53         C  0.29258476  0.29248072  0.38707243    -0.55500
C54         C  0.27046955  0.29083726  0.35411580     0.08500
C55         C  0.34272184  0.25817162  0.35051010    -0.55000
C56         C  0.32035399  0.25592503  0.31733086     0.09000
H57         H  0.33893147  0.36125880  0.36458118     0.13600
H58         H  0.30512407  0.29294889  0.28485980    -0.00700
H59         H  0.28084274  0.29209264  0.41637963     0.13900
H60         H  0.35751169  0.23315842  0.36137524     0.13700
C61         C  0.24502893  0.37703444  0.23688474     0.84000
C62         C  0.28170890  0.38246653  0.26511980    -0.54800
C63         C  0.28256182  0.35997430  0.29815789     0.08400
C64         C  0.24547395  0.33916392  0.29741566     0.19300
C65         C  0.24842299  0.33402271  0.22654203    -0.55500
C66         C  0.24894345  0.31157815  0.25896521     0.08500
C67         C  0.20549304  0.37657364  0.26130515    -0.55000
C68         C  0.20571930  0.35450559  0.29467182     0.09000
H69         H  0.30811685  0.39416450  0.25366266     0.13600
H70         H  0.24394254  0.34403533  0.32892365    -0.00700
H71         H  0.24905304  0.32197025  0.19752370     0.13900
H72         H  0.17853263  0.38347975  0.24702340     0.13700
C73         C  0.15743636  0.28382427  0.37099013     0.85400
C74         C  0.15822825  0.24565644  0.34460742    -0.54800
C75         C  0.18259685  0.24626283  0.31280772     0.08400
C76         C  0.19820592  0.28548745  0.31240827     0.19300
C77         C  0.20013247  0.28725662  0.38357636    -0.55500
C78         C  0.22439212  0.28774783  0.35236379     0.08500
C79         C  0.15363615  0.32131066  0.34360643    -0.55000
C80         C  0.17712379  0.32242380  0.31143763     0.09000
H81         H  0.14773659  0.21886765  0.35586681     0.13600
H82         H  0.19444001  0.28481265  0.28066529    -0.00700
H83         H  0.20988300  0.28927766  0.41359917     0.13900
H84         H  0.14525764  0.34835769  0.35616466     0.13700
C85         C  0.25754599  0.20038229  0.23828903     0.85400
C86         C  0.21881856  0.19544839  0.26356936    -0.54800
C87         C  0.21576233  0.21801948  0.29643391     0.08400
C88         C  0.25301615  0.23874540  0.29829557     0.19300
C89         C  0.25482486  0.24329247  0.22727573    -0.55500
C90         C  0.25220594  0.26599433  0.25935567     0.08500
C91         C  0.29522972  0.20083252  0.26592387    -0.55000
C92         C  0.29294840  0.22339692  0.29888180     0.09000
H93         H  0.19317885  0.18405118  0.24999053     0.13600
H94         H  0.25241594  0.23430538  0.32989500    -0.00700
H95         H  0.25537195  0.25523193  0.19822077     0.13900
H96         H  0.32303668  0.19348524  0.25393453     0.13700
O97         O  0.28140440  0.99370796  0.09636115    -0.72800
O98         O  0.29043718  0.07551363  0.02436189    -0.73000
O99         O  0.28975051  0.06944583  0.10258373    -0.72900
O100        O  0.28205395  0.99992696  0.01787421    -0.72900
O101        O  0.21991838  0.00261729  0.02163297    -0.72900
O102        O  0.22845675  0.08019879  0.09815218    -0.72900
O103        O  0.22853877  0.07859133  0.02002544    -0.72800
O104        O  0.22012737  0.00454343  0.10025140    -0.73000
V105        V  0.28480478  0.03469801  0.06031231     1.35200
V106        V  0.22540529  0.04130395  0.06002448     1.35200
C107        C  0.24960887  0.48691324  0.10976522     0.76400
C108        C  0.26099323  0.09039758  0.00900885     0.76500
C109        C  0.26040752  0.08752268  0.11379090     0.76300
C110        C  0.24880901  0.48865370  0.00412098     0.76300
O111        O  0.03663961  0.25362433  0.51685905    -0.72800
O112        O  0.46045772  0.25771673  0.59839916    -0.73000
O113        O  0.45796212  0.25945823  0.51976141    -0.72900
O114        O  0.03769556  0.25219213  0.59603526    -0.72900
O115        O  0.04345316  0.31350054  0.59543452    -0.72900
O116        O  0.46174607  0.32078784  0.52212627    -0.72900
O117        O  0.46579566  0.31906825  0.60034118    -0.72800
O118        O  0.03900845  0.31524503  0.51651326    -0.73000
V119        V  0.49779698  0.25693596  0.55813633     1.35200
V120        V  0.50193877  0.31597470  0.55922368     1.35200
C121        C  0.04972849  0.28388651  0.50216136     0.76400
C122        C  0.45105620  0.28905708  0.61372834     0.76500
C123        C  0.44624872  0.29157086  0.50780271     0.76300
C124        C  0.05316295  0.28177476  0.60988156     0.76300
C125        C  0.26303730  0.11676087  0.14421759    -0.07200
C126        C  0.26639649  0.10538436  0.18320215    -0.18300
C127        C  0.26445979  0.13196179  0.21371875     0.10000
C128        C  0.26021619  0.17125605  0.20512689    -0.07100
C129        C  0.25720274  0.18218537  0.16549822    -0.18300
C130        C  0.25849958  0.15550751  0.13529939     0.10100
S131        S  0.26619088  0.11488483  0.26356264    -0.33300
S132        S  0.25339042  0.17250596  0.08578324    -0.33300
H133        H  0.27886466  0.14594363  0.06943538     0.28100
H134        H  0.26428984  0.07586051  0.25499734     0.28100
H135        H  0.26927826  0.07539218  0.18969113     0.18700
H136        H  0.25306781  0.21136003  0.15703431     0.18700
C137        C  0.07609304  0.28285963  0.46831113    -0.07200
C138        C  0.10602326  0.25617179  0.46730643    -0.18300
C139        C  0.13247119  0.25533830  0.43624788     0.10000
C140        C  0.12909604  0.28211035  0.40522586    -0.07100
C141        C  0.09765799  0.30735148  0.40584827    -0.18300
C142        C  0.07169035  0.30811948  0.43666211     0.10100
S143        S  0.17020347  0.21996198  0.43717078    -0.33300
S144        S  0.03213576  0.34077961  0.43248415    -0.33300
H145        H  0.00498619  0.31419634  0.44539784     0.28100
H146        H  0.15716483  0.19962036  0.46988067     0.28100
H147        H  0.10905686  0.23640446  0.49137667     0.18700
H148        H  0.09190684  0.32626612  0.38168468     0.18700
C149        C  0.24704658  0.45816016  0.14065919    -0.07200
C150        C  0.23621212  0.46984350  0.17808217    -0.18300
C151        C  0.23602779  0.44430308  0.20954573     0.10000
C152        C  0.24511215  0.40544609  0.20311476    -0.07100
C153        C  0.25669867  0.39435973  0.16531021    -0.18300
C154        C  0.25760655  0.42008858  0.13427510     0.10100
S155        S  0.22549261  0.46231856  0.25786927    -0.33300
S156        S  0.27256808  0.40249301  0.08718328    -0.33300
H157        H  0.24991889  0.42753031  0.06494229     0.28100
H158        H  0.22268480  0.50097841  0.24780318     0.28100
H159        H  0.22909771  0.49948938  0.18281256     0.18700
H160        H  0.26631738  0.36582541  0.15928848     0.18700
C161        C  0.36217084  0.29526915  0.41397513    -0.07200
C162        C  0.38735313  0.32580267  0.42048861    -0.18300
C163        C  0.41234721  0.32672873  0.45239003     0.10000
C164        C  0.41584634  0.29472551  0.47717764    -0.07100
C165        C  0.39066613  0.26418651  0.47129018    -0.18300
C166        C  0.36311819  0.26457505  0.44108320     0.10100
S167        S  0.43890431  0.36998690  0.45914988    -0.33300
S168        S  0.32965581  0.22547449  0.43793625    -0.33300
H169        H  0.34269028  0.20521099  0.47084470     0.28100
H170        H  0.42306678  0.37666976  0.49629504     0.28100
H171        H  0.38820102  0.34976243  0.40091145     0.18700
H172        H  0.39236520  0.24001470  0.49077780     0.18700
C173        C  0.13407480  0.28097795  0.70685920    -0.07200
C174        C  0.10591958  0.25250948  0.70342164    -0.18300
C175        C  0.07963625  0.25184229  0.67235135     0.10000
C176        C  0.08116435  0.27994617  0.64286683    -0.07100
C177        C  0.10886012  0.30858076  0.64613587    -0.18300
C178        C  0.13499469  0.30970383  0.67752987     0.10100
S179        S  0.04309490  0.21582375  0.67391516    -0.33300
S180        S  0.16872592  0.34866073  0.67948275    -0.33300
H181        H  0.15760203  0.36680472  0.64460310     0.28100
H182        H  0.01287076  0.24131813  0.66599808     0.28100
H183        H  0.10274549  0.23122556  0.72586701     0.18700
H184        H  0.10982943  0.33043145  0.62392825     0.18700
C185        C  0.26124645  0.17478655  0.91656066    -0.07200
C186        C  0.29354021  0.15124896  0.92301751    -0.18300
C187        C  0.29580806  0.12582855  0.95434660     0.10000
C188        C  0.26360538  0.12069648  0.97876153    -0.07100
C189        C  0.23195449  0.14504755  0.97363586    -0.18300
C190        C  0.23101340  0.17288414  0.94418319     0.10100
S191        S  0.34158711  0.10271513  0.96164536    -0.33300
S192        S  0.19087207  0.20557354  0.94296423    -0.33300
H193        H  0.17635422  0.19693035  0.98021813     0.28100
H194        H  0.32738917  0.06599546  0.96656165     0.28100
H195        H  0.31783302  0.15176267  0.90373370     0.18700
H196        H  0.20778135  0.14253099  0.99322098     0.18700
C197        C  0.36757655  0.29222471  0.70661708    -0.07200
C198        C  0.39728499  0.31919072  0.70499972    -0.18300
C199        C  0.42496068  0.31854506  0.67568417     0.10000
C200        C  0.42336899  0.29044437  0.64634703    -0.07100
C201        C  0.39452969  0.26287576  0.64809834    -0.18300
C202        C  0.36679352  0.26320348  0.67772548     0.10100
S203        S  0.46283965  0.35314337  0.67908739    -0.33300
S204        S  0.33141061  0.22570386  0.67819044    -0.33300
H205        H  0.34077913  0.20937352  0.64194852     0.28100
H206        H  0.49228772  0.32720919  0.67001134     0.28100
H207        H  0.40057810  0.34028667  0.72766764     0.18700
H208        H  0.39367946  0.24097084  0.62590452     0.18700
C209        C  0.24400929  0.40556401  0.91153518    -0.07200
C210        C  0.26223796  0.44077926  0.90628451    -0.18300
C211        C  0.26314097  0.46824651  0.93546425     0.10000
C212        C  0.24572364  0.46116809  0.97169760    -0.07100
C213        C  0.22537790  0.42728096  0.97681413    -0.18300
C214        C  0.22359505  0.39969964  0.94715252     0.10100
S215        S  0.28461876  0.01533992  0.92505868    -0.33300
S216        S  0.19495134  0.35839727  0.95805458    -0.33300
H217        H  0.18094687  0.35244194  0.92020034     0.28100
H218        H  0.25729553  0.03669438  0.94577325     0.28100
H219        H  0.27529526  0.44787219  0.87860284     0.18700
H220        H  0.21080019  0.42218561  0.00422675     0.18700
C221        C  0.24620523  0.87992997  0.87744035     0.85400
C222        C  0.20748931  0.87996483  0.85136900    -0.54800
C223        C  0.20777577  0.85649936  0.81903522     0.08400
C224        C  0.24739314  0.84070380  0.81793150     0.19300
C225        C  0.25048151  0.83746345  0.88895949    -0.55500
C226        C  0.25023960  0.81408652  0.85730367     0.08500
C227        C  0.28370392  0.88421917  0.84988601    -0.55000
C228        C  0.28470034  0.86129254  0.81722927     0.09000
H229        H  0.18070186  0.89097314  0.86277005     0.13600
H230        H  0.24635124  0.84475231  0.78630003    -0.00700
H231        H  0.25424529  0.82705576  0.91851488     0.13900
H232        H  0.31056549  0.89421619  0.86215718     0.13700
C233        C  0.33909074  0.79435817  0.74084146     0.85400
C234        C  0.34472061  0.75782600  0.76873238    -0.54800
C235        C  0.32182390  0.75677695  0.80129188     0.08400
C236        C  0.30091866  0.79361719  0.80112955     0.19300
C237        C  0.29570401  0.79213602  0.73021273    -0.55500
C238        C  0.27291176  0.79114233  0.76260907     0.08500
C239        C  0.33911105  0.83319775  0.76639305    -0.55000
C240        C  0.31677294  0.83276010  0.79960545     0.09000
H241        H  0.35876879  0.73220215  0.75846487     0.13600
H242        H  0.30647454  0.79452372  0.83258061    -0.00700
H243        H  0.28449317  0.79153879  0.70063833     0.13900
H244        H  0.34412540  0.86037946  0.75240659     0.13700
C245        C  0.25873579  0.70332350  0.88063809     0.85400
C246        C  0.29661845  0.70352630  0.85327281    -0.54800
C247        C  0.29412107  0.72495696  0.81978306     0.08400
C248        C  0.25436937  0.74062575  0.81981161     0.19300
C249        C  0.25599850  0.74620384  0.89084528    -0.55500
C250        C  0.25334961  0.76849891  0.85824304     0.08500
C251        C  0.22049825  0.69737409  0.85420709    -0.55000
C252        C  0.21738267  0.71998077  0.82128955     0.09000
H253        H  0.32497542  0.70125607  0.86606021     0.13600
H254        H  0.25400376  0.73552007  0.78834161    -0.00700
H255        H  0.25638123  0.75744292  0.92033400     0.13900
H256        H  0.19545174  0.68309722  0.86561535     0.13700
C257        C  0.15992862  0.78400438  0.74359407     0.85400
C258        C  0.15519849  0.82171576  0.77020366    -0.54800
C259        C  0.17911051  0.82412214  0.80231149     0.08400
C260        C  0.20008906  0.78715765  0.80289399     0.19300
C261        C  0.20293100  0.78591895  0.73186001    -0.55500
C262        C  0.22676723  0.78823795  0.76344546     0.08500
C263        C  0.16087283  0.74617796  0.77090142    -0.55000
C264        C  0.18434103  0.74781676  0.80352409     0.09000
H265        H  0.14068600  0.84686610  0.75923710     0.13600
H266        H  0.19618732  0.78736914  0.83451533    -0.00700
H267        H  0.21321015  0.78536843  0.70196944     0.13900
H268        H  0.15543601  0.71845410  0.75831373     0.13700
C269        C  0.33533431  0.79334214  0.37576669     0.85400
C270        C  0.33440396  0.83174620  0.34938071    -0.54800
C271        C  0.31240241  0.83004385  0.31585566     0.08400
C272        C  0.29746650  0.79046416  0.31500125     0.19300
C273        C  0.29212048  0.79002008  0.38594757    -0.55500
C274        C  0.26946034  0.78813960  0.35345384     0.08500
C275        C  0.34213709  0.75653141  0.34832984    -0.55000
C276        C  0.31920008  0.75405517  0.31560257     0.09000
H277        H  0.33731888  0.85945840  0.36281099     0.13600
H278        H  0.30286275  0.79093235  0.28352396    -0.00700
H279        H  0.28090455  0.78941137  0.41546188     0.13900
H280        H  0.35770171  0.73177488  0.35869158     0.13700
C281        C  0.24108131  0.87432094  0.23699244     0.84000
C282        C  0.27806402  0.88003707  0.26466680    -0.54800
C283        C  0.27964360  0.85753270  0.29760338     0.08400
C284        C  0.24277121  0.83628647  0.29745221     0.19300
C285        C  0.24470866  0.83137321  0.22650324    -0.55500
C286        C  0.24589812  0.80884650  0.25890878     0.08500
C287        C  0.20187030  0.87333464  0.26202581    -0.55000
C288        C  0.20285129  0.85112612  0.29535783     0.09000
H289        H  0.30418918  0.89202016  0.25284435     0.13600
H290        H  0.24167865  0.84102283  0.32899867    -0.00700
H291        H  0.24503751  0.81950671  0.19738987     0.13900
H292        H  0.17463169  0.87987782  0.24812874     0.13700
C293        C  0.15680404  0.77958571  0.37253289     0.85400
C294        C  0.15774612  0.74137665  0.34620829    -0.54800
C295        C  0.18151653  0.74234293  0.31390336     0.08400
C296        C  0.19654774  0.78182686  0.31321499     0.19300
C297        C  0.19967978  0.78345416  0.38439558    -0.55500
C298        C  0.22340197  0.78437795  0.35268745     0.08500
C299        C  0.15227113  0.81708293  0.34522108    -0.55000
C300        C  0.17504993  0.81854385  0.31259944     0.09000
H301        H  0.14838205  0.71437636  0.35800973     0.13600
H302        H  0.19212624  0.78114284  0.28156399    -0.00700
H303        H  0.20992195  0.78551407  0.41427602     0.13900
H304        H  0.14400137  0.84405155  0.35806084     0.13700
C305        C  0.25574495  0.69801848  0.23769790     0.85400
C306        C  0.21765291  0.69217383  0.26377146    -0.54800
C307        C  0.21480845  0.71458803  0.29681193     0.08400
C308        C  0.25175739  0.73588893  0.29803954     0.19300
C309        C  0.25212146  0.74090495  0.22702608    -0.55500
C310        C  0.24975654  0.76333171  0.25922577     0.08500
C311        C  0.29397195  0.69895181  0.26449056    -0.55000
C312        C  0.29195434  0.72117995  0.29767798     0.09000
H313        H  0.19199396  0.68031244  0.25067923     0.13600
H314        H  0.25184496  0.73133334  0.32964880    -0.00700
H315        H  0.25223018  0.75313020  0.19814061     0.13900
H316        H  0.32164882  0.69222894  0.25183631     0.13700
O317        O  0.28134561  0.49403917  0.09373443    -0.72800
O318        O  0.28939886  0.57610369  0.02233655    -0.73000
O319        O  0.28930654  0.56946378  0.10033628    -0.72900
O320        O  0.28126817  0.50035603  0.01539711    -0.72900
O321        O  0.21920594  0.50179163  0.02057059    -0.72900
O322        O  0.22816623  0.58091792  0.09533437    -0.72900
O323        O  0.22748826  0.57799731  0.01733471    -0.72800
O324        O  0.22027337  0.50544114  0.09916739    -0.73000
V325        V  0.28424754  0.53503442  0.05790292     1.35200
V326        V  0.22486307  0.54135622  0.05805992     1.35200
C327        C  0.24927931  0.98602567  0.11137008     0.76400
C328        C  0.25983616  0.59048242  0.00676488     0.76500
C329        C  0.26006444  0.58781196  0.11128271     0.76300
C330        C  0.24960331  0.98915871  0.00565015     0.76300
O331        O  0.03520319  0.75231687  0.51858492    -0.72800
O332        O  0.45794323  0.75765212  0.59697459    -0.73000
O333        O  0.45722374  0.75847668  0.51824304    -0.72900
O334        O  0.03625611  0.75231194  0.59778145    -0.72900
O335        O  0.04132465  0.81368914  0.59688359    -0.72900
O336        O  0.46049633  0.81984851  0.52018069    -0.72900
O337        O  0.46317494  0.81903799  0.59841907    -0.72800
O338        O  0.03863603  0.81388386  0.51791982    -0.73000
V339        V  0.49618002  0.75658529  0.55761655     1.35200
V340        V  0.50000394  0.81566339  0.55804758     1.35200
C341        C  0.04903645  0.78222457  0.50390932     0.76400
C342        C  0.44842770  0.78910315  0.61196332     0.76500
C343        C  0.44548881  0.79042655  0.50581277     0.76300
C344        C  0.05127093  0.78219178  0.61157112     0.76300
C345        C  0.26262413  0.61656058  0.14204814    -0.07200
C346        C  0.26769540  0.60457638  0.18066203    -0.18300
C347        C  0.26518160  0.63040904  0.21177366     0.10000
C348        C  0.25839022  0.66951744  0.20407378    -0.07100
C349        C  0.25337679  0.68099958  0.16480119    -0.18300
C350        C  0.25577223  0.65512431  0.13402948     0.10100
S351        S  0.26930239  0.61254635  0.26120263    -0.33300
S352        S  0.24957378  0.67301776  0.08495467    -0.33300
H353        H  0.27527177  0.64732754  0.06752344     0.28100
H354        H  0.27551193  0.57415214  0.25169612     0.28100
H355        H  0.27216545  0.57464797  0.18640545     0.18700
H356        H  0.24689577  0.70985546  0.15702629     0.18700
C357        C  0.07561746  0.78037796  0.47021856    -0.07200
C358        C  0.10568501  0.75374070  0.46987573    -0.18300
C359        C  0.13213318  0.75217956  0.43873724     0.10000
C360        C  0.12847802  0.77801574  0.40691241    -0.07100
C361        C  0.09661860  0.80275841  0.40678989    -0.18300
C362        C  0.07094230  0.80454080  0.43776471     0.10100
S363        S  0.17005821  0.71705732  0.44042694    -0.33300
S364        S  0.03156760  0.83731220  0.43290301    -0.33300
H365        H  0.00432412  0.81135658  0.44686164     0.28100
H366        H  0.15820402  0.69852028  0.47471858     0.28100
H367        H  0.10880980  0.73461454  0.49448808     0.18700
H368        H  0.09036896  0.82067580  0.38193952     0.18700
C369        C  0.24585196  0.95669205  0.14176823    -0.07200
C370        C  0.23342174  0.96775834  0.17888170    -0.18300
C371        C  0.23179403  0.94171001  0.20988399     0.10000
C372        C  0.24100017  0.90290723  0.20328545    -0.07100
C373        C  0.25390902  0.89231331  0.16574431    -0.18300
C374        C  0.25634103  0.91859836  0.13520229     0.10100
S375        S  0.21992562  0.95920907  0.25807451    -0.33300
S376        S  0.27333446  0.90171777  0.08856973    -0.33300
H377        H  0.25141312  0.92693922  0.06578927     0.28100
H378        H  0.21142188  0.99687018  0.24726940     0.28100
H379        H  0.22641448  0.99735413  0.18384957     0.18700
H380        H  0.26361196  0.86383420  0.15972587     0.18700
C381        C  0.36176217  0.79347667  0.41173393    -0.07200
C382        C  0.38645051  0.82434695  0.41840242    -0.18300
C383        C  0.41155069  0.82535388  0.45020569     0.10000
C384        C  0.41545926  0.79322361  0.47480545    -0.07100
C385        C  0.39079152  0.76234294  0.46866857    -0.18300
C386        C  0.36329401  0.76251457  0.43847360     0.10100
S387        S  0.43773216  0.86884422  0.45700703    -0.33300
S388        S  0.33042360  0.72292013  0.43508057    -0.33300
H389        H  0.34670044  0.70049826  0.46486954     0.28100
H390        H  0.42206181  0.87531007  0.49426326     0.28100
H391        H  0.38679051  0.84849367  0.39903905     0.18700
H392        H  0.39272244  0.73813236  0.48808459     0.18700
C393        C  0.13219136  0.78336533  0.70844979    -0.07200
C394        C  0.10392221  0.75490225  0.70569987    -0.18300
C395        C  0.07759211  0.75361699  0.67470151     0.10000
C396        C  0.07911199  0.78112699  0.64468256    -0.07100
C397        C  0.10656037  0.81005484  0.64754089    -0.18300
C398        C  0.13279782  0.81174712  0.67879812     0.10100
S399        S  0.04107433  0.71760162  0.67689097    -0.33300
S400        S  0.16624905  0.85095147  0.68018790    -0.33300
H401        H  0.15647614  0.86725940  0.64396350     0.28100
H402        H  0.01086434  0.74273058  0.66776162     0.28100
H403        H  0.10077981  0.73401190  0.72856838     0.18700
H404        H  0.10730660  0.83167819  0.62505513     0.18700
C405        C  0.26057903  0.67681274  0.91640150    -0.07200
C406        C  0.29252459  0.65263359  0.92199052    -0.18300
C407        C  0.29448430  0.62630511  0.95247419     0.10000
C408        C  0.26238672  0.62114933  0.97700618    -0.07100
C409        C  0.23109498  0.64613036  0.97285053    -0.18300
C410        C  0.23032347  0.67456362  0.94396594     0.10100
S411        S  0.33980803  0.60192706  0.95835233    -0.33300
S412        S  0.19065499  0.70785724  0.94357933    -0.33300
H413        H  0.16752941  0.68882447  0.97082879     0.28100
H414        H  0.32491410  0.56566616  0.96428198     0.28100
H415        H  0.31663507  0.65317024  0.90257885     0.18700
H416        H  0.20734579  0.64378272  0.99292862     0.18700
C417        C  0.36642531  0.79322911  0.70602649    -0.07200
C418        C  0.39620408  0.82005545  0.70371657    -0.18300
C419        C  0.42358191  0.81879616  0.67413877     0.10000
C420        C  0.42111408  0.79074537  0.64483371    -0.07100
C421        C  0.39228431  0.76324166  0.64732089    -0.18300
C422        C  0.36536501  0.76366364  0.67771933     0.10100
S423        S  0.46262196  0.85212174  0.67744698    -0.33300
S424        S  0.33061139  0.72563937  0.67988756    -0.33300
H425        H  0.34590342  0.70319678  0.64969802     0.28100
H426        H  0.49111741  0.82517939  0.66827375     0.28100
H427        H  0.39992529  0.84129380  0.72614123     0.18700
H428        H  0.39083321  0.74133216  0.62518599     0.18700
C429        C  0.24455791  0.90783103  0.91166473    -0.07200
C430        C  0.26292593  0.94306075  0.90689840    -0.18300
C431        C  0.26367989  0.97015395  0.93651091     0.10000
C432        C  0.24656455  0.96232599  0.97273223    -0.07100
C433        C  0.22613577  0.92846872  0.97732689    -0.18300
C434        C  0.22399654  0.90155654  0.94711793     0.10100
S435        S  0.28514798  0.51277739  0.92343882    -0.33300
S436        S  0.19454430  0.86059679  0.95719753    -0.33300
H437        H  0.18071200  0.85515591  0.91921877     0.28100
H438        H  0.25864732  0.53512148  0.94415328     0.28100
H439        H  0.27597272  0.95045822  0.87934262     0.18700
H440        H  0.21162804  0.92298110  0.00464818     0.18700
C441        C  0.74801038  0.37852575  0.87652826     0.85400
C442        C  0.70872050  0.37822090  0.85117445    -0.54800
C443        C  0.70864198  0.35484999  0.81865447     0.08400
C444        C  0.74828372  0.33922646  0.81703802     0.19300
C445        C  0.75210536  0.33603940  0.88813476    -0.55500
C446        C  0.75165770  0.31258660  0.85639157     0.08500
C447        C  0.78507483  0.38262502  0.84837498    -0.55000
C448        C  0.78549908  0.35991457  0.81575384     0.09000
H449        H  0.68188643  0.38770986  0.86381963     0.13600
H450        H  0.74684134  0.34338715  0.78543323    -0.00700
H451        H  0.75533991  0.32581124  0.91784611     0.13900
H452        H  0.81259984  0.39077745  0.86054928     0.13700
C453        C  0.83977295  0.29384657  0.73893688     0.85400
C454        C  0.84560346  0.25703904  0.76646561    -0.54800
C455        C  0.82310415  0.25573057  0.79936692     0.08400
C456        C  0.80198217  0.29247948  0.79951095     0.19300
C457        C  0.79629152  0.29157180  0.72859609    -0.55500
C458        C  0.77374075  0.29009285  0.76119987     0.08500
C459        C  0.83973111  0.33246044  0.76471859    -0.55000
C460        C  0.81757374  0.33166207  0.79797643     0.09000
H461        H  0.85900949  0.23135377  0.75548401     0.13600
H462        H  0.80767309  0.29330065  0.83091716    -0.00700
H463        H  0.78481755  0.29139085  0.69911675     0.13900
H464        H  0.84452570  0.35974611  0.75084666     0.13700
C465        C  0.76051798  0.20163900  0.87911069     0.85400
C466        C  0.79839184  0.20205745  0.85165361    -0.54800
C467        C  0.79571727  0.22372149  0.81821672     0.08400
C468        C  0.75592881  0.23925890  0.81851142     0.19300
C469        C  0.75763168  0.24448980  0.88951704    -0.55500
C470        C  0.75493576  0.26696387  0.85708110     0.08500
C471        C  0.72238911  0.19555185  0.85261030    -0.55000
C472        C  0.71906586  0.21837574  0.81994185     0.09000
H473        H  0.82678443  0.19935507  0.86426182     0.13600
H474        H  0.75546862  0.23432263  0.78702800    -0.00700
H475        H  0.75792589  0.25558911  0.91907139     0.13900
H476        H  0.69760354  0.18055119  0.86359840     0.13700
C477        C  0.66079352  0.28227227  0.74300469     0.85400
C478        C  0.65592918  0.31982144  0.76992581    -0.54800
C479        C  0.68003361  0.32230337  0.80192334     0.08400
C480        C  0.70124673  0.28546075  0.80208586     0.19300
C481        C  0.70367697  0.28451481  0.73102503    -0.55500
C482        C  0.72765700  0.28687593  0.76244523     0.08500
C483        C  0.66209351  0.24432571  0.77007965    -0.55000
C484        C  0.68572804  0.24601980  0.80257188     0.09000
H485        H  0.64097471  0.34483953  0.75930518     0.13600
H486        H  0.69762709  0.28552561  0.83375019    -0.00700
H487        H  0.71377865  0.28414527  0.70109406     0.13900
H488        H  0.65685218  0.21661195  0.75739545     0.13700
C489        C  0.83598156  0.29301944  0.37674181     0.85400
C490        C  0.83584651  0.33108181  0.34982984    -0.54800
C491        C  0.81395736  0.32947774  0.31625969     0.08400
C492        C  0.79813569  0.29019638  0.31588201     0.19300
C493        C  0.79257860  0.29066385  0.38679382    -0.55500
C494        C  0.76993680  0.28885337  0.35416435     0.08500
C495        C  0.84190200  0.25561846  0.34981035    -0.55000
C496        C  0.81902084  0.25330302  0.31691868     0.09000
H497        H  0.83919596  0.35889034  0.36293477     0.13600
H498        H  0.80368821  0.29027699  0.28446599    -0.00700
H499        H  0.78124601  0.29065361  0.41627071     0.13900
H500        H  0.85655387  0.23055574  0.36074254     0.13700
C501        C  0.74376641  0.37502227  0.23674391     0.84000
C502        C  0.78096405  0.38003362  0.26439738    -0.54800
C503        C  0.78199529  0.35760449  0.29748420     0.08400
C504        C  0.74472971  0.33713991  0.29731002     0.19300
C505        C  0.74677254  0.33195030  0.22639660    -0.55500
C506        C  0.74745885  0.30951690  0.25890975     0.08500
C507        C  0.70465136  0.37500957  0.26183947    -0.55000
C508        C  0.70510827  0.35285422  0.29512784     0.09000
H509        H  0.80737864  0.39125070  0.25245978     0.13600
H510        H  0.74366387  0.34206986  0.32881556    -0.00700
H511        H  0.74750117  0.31984398  0.19744222     0.13900
H512        H  0.67757014  0.38236480  0.24805650     0.13700
C513        C  0.65681291  0.28292938  0.37219729     0.85400
C514        C  0.65718881  0.24457763  0.34602320    -0.54800
C515        C  0.68123014  0.24486390  0.31390729     0.08400
C516        C  0.69720222  0.28396423  0.31328972     0.19300
C517        C  0.69970581  0.28613627  0.38438867    -0.55500
C518        C  0.72376583  0.28617314  0.35296506     0.08500
C519        C  0.65310116  0.32027363  0.34464447    -0.55000
C520        C  0.67641995  0.32107701  0.31234077     0.09000
H521        H  0.64683742  0.21789083  0.35770460     0.13600
H522        H  0.69311297  0.28322515  0.28161764    -0.00700
H523        H  0.70974028  0.28837081  0.41431642     0.13900
H524        H  0.64468085  0.34737978  0.35706827     0.13700
C525        C  0.75506217  0.19830663  0.23825319     0.85400
C526        C  0.71642029  0.19373007  0.26388351    -0.54800
C527        C  0.71389216  0.21625898  0.29693377     0.08400
C528        C  0.75134094  0.23668645  0.29840524     0.19300
C529        C  0.75248297  0.24124782  0.22740967    -0.55500
C530        C  0.75038973  0.26392735  0.25945854     0.08500
C531        C  0.79287309  0.19827752  0.26574046    -0.55000
C532        C  0.79113414  0.22094531  0.29870350     0.09000
H533        H  0.69056985  0.18256534  0.25052238     0.13600
H534        H  0.75097829  0.23255983  0.33001354    -0.00700
H535        H  0.75219720  0.25332716  0.19843079     0.13900
H536        H  0.82048381  0.19029837  0.25369731     0.13700
O537        O  0.77965400  0.99427042  0.09527154    -0.72800
O538        O  0.78917823  0.07409818  0.02128240    -0.73000
O539        O  0.78862417  0.06979097  0.09966248    -0.72900
O540        O  0.77995507  0.99840793  0.01665311    -0.72900
O541        O  0.71785617  0.00243652  0.01973627    -0.72900
O542        O  0.72722794  0.08022876  0.09605346    -0.72900
O543        O  0.72731938  0.07848243  0.01775853    -0.72800
O544        O  0.71827829  0.00482722  0.09850631    -0.73000
V545        V  0.78319773  0.03420622  0.05818483     1.35200
V546        V  0.72382252  0.04131147  0.05796316     1.35200
C547        C  0.74567443  0.48695847  0.11113798     0.76400
C548        C  0.75990366  0.08957271  0.00626915     0.76500
C549        C  0.75929995  0.08755758  0.11142665     0.76300
C550        C  0.74936471  0.48829459  0.00530952     0.76300
O551        O  0.53513889  0.25372873  0.51768744    -0.72800
O552        O  0.96109884  0.25769593  0.59678327    -0.73000
O553        O  0.95945715  0.25936714  0.51811245    -0.72900
O554        O  0.53697369  0.25230130  0.59691635    -0.72900
O555        O  0.54204717  0.31367711  0.59686665    -0.72900
O556        O  0.96256578  0.32072344  0.52099859    -0.72900
O557        O  0.96716372  0.31896200  0.59937838    -0.72800
O558        O  0.53811581  0.31532859  0.51779793    -0.73000
V559        V  0.99888422  0.25685611  0.55690278     1.35200
V560        V  0.00304423  0.31588235  0.55802090     1.35200
C561        C  0.54851229  0.28395965  0.50318692     0.76400
C562        C  0.95201500  0.28900019  0.61240582     0.76500
C563        C  0.94739628  0.29142751  0.50637250     0.76300
C564        C  0.55204923  0.28194875  0.61106967     0.76300
C565        C  0.76196215  0.11608245  0.14258766    -0.07200
C566        C  0.76209899  0.10385728  0.18146151    -0.18300
C567        C  0.75987106  0.12994855  0.21245170     0.10000
C568        C  0.75775958  0.16953843  0.20455938    -0.07100
C569        C  0.75824567  0.18126214  0.16499732    -0.18300
C570        C  0.76042745  0.15513488  0.13431428     0.10100
S571        S  0.75893813  0.11196706  0.26194891    -0.33300
S572        S  0.76052789  0.17329589  0.08496208    -0.33300
H573        H  0.78470430  0.14495983  0.06969963     0.28100
H574        H  0.75705797  0.07313567  0.25253679     0.28100
H575        H  0.76297568  0.07364833  0.18740999     0.18700
H576        H  0.75697695  0.21072108  0.15680704     0.18700
C577        C  0.57499122  0.28280276  0.46938264    -0.07200
C578        C  0.60541030  0.25665321  0.46907154    -0.18300
C579        C  0.63197705  0.25557251  0.43811503     0.10000
C580        C  0.62842789  0.28169098  0.40653697    -0.07100
C581        C  0.59652375  0.30644324  0.40649343    -0.18300
C582        C  0.57026114  0.30729517  0.43714374     0.10100
S583        S  0.67009609  0.22067842  0.43994594    -0.33300
S584        S  0.52993385  0.33892860  0.43207077    -0.33300
H585        H  0.50330748  0.31226978  0.44592898     0.28100
H586        H  0.65566206  0.19935084  0.47135513     0.28100
H587        H  0.60872481  0.23747747  0.49359630     0.18700
H588        H  0.59064502  0.32478414  0.38188913     0.18700
C589        C  0.74293986  0.45780060  0.14170578    -0.07200
C590        C  0.73630673  0.46934587  0.18018147    -0.18300
C591        C  0.73692053  0.44310339  0.21109405     0.10000
C592        C  0.74313967  0.40391716  0.20329851    -0.07100
C593        C  0.75004605  0.39285732  0.16429335    -0.18300
C594        C  0.74995060  0.41923007  0.13373446     0.10100
S595        S  0.73086395  0.46048268  0.26046880    -0.33300
S596        S  0.75943921  0.40199262  0.08507184    -0.33300
H597        H  0.73548726  0.42827651  0.06593755     0.28100
H598        H  0.72744119  0.49929054  0.25125194     0.28100
H599        H  0.73179317  0.49925765  0.18603584     0.18700
H600        H  0.75638592  0.36384400  0.15675866     0.18700
C601        C  0.86276527  0.29355668  0.41270268    -0.07200
C602        C  0.88818824  0.32413339  0.41841598    -0.18300
C603        C  0.91331650  0.32569482  0.45026937     0.10000
C604        C  0.91683908  0.29423589  0.47576232    -0.07100
C605        C  0.89155671  0.26363840  0.47057937    -0.18300
C606        C  0.86391506  0.26340990  0.44042102     0.10100
S607        S  0.93992186  0.36903977  0.45613468    -0.33300
S608        S  0.83044800  0.22428236  0.43825487    -0.33300
H609        H  0.84612150  0.20271525  0.46903646     0.28100
H610        H  0.92499025  0.37603050  0.49360059     0.28100
H611        H  0.88907949  0.34763772  0.39832215     0.18700
H612        H  0.89319013  0.23995294  0.49065138     0.18700
C613        C  0.63312526  0.28174706  0.70781960    -0.07200
C614        C  0.60540645  0.25283696  0.70431130    -0.18300
C615        C  0.57902952  0.25192378  0.67331753     0.10000
C616        C  0.58000280  0.28028927  0.64406711    -0.07100
C617        C  0.60713413  0.30940417  0.64754597    -0.18300
C618        C  0.63332492  0.31075048  0.67881249     0.10100
S619        S  0.54327261  0.21511235  0.67450728    -0.33300
S620        S  0.66660405  0.35006203  0.68064344    -0.33300
H621        H  0.64927814  0.37242433  0.65139742     0.28100
H622        H  0.51251217  0.23995079  0.66654176     0.28100
H623        H  0.60272620  0.23126261  0.72657664     0.18700
H624        H  0.60786601  0.33135713  0.62537973     0.18700
C625        C  0.76201307  0.17521140  0.91495954    -0.07200
C626        C  0.79405872  0.15138898  0.92139780    -0.18300
C627        C  0.79555848  0.12520556  0.95213523     0.10000
C628        C  0.76297177  0.11992085  0.97605957    -0.07100
C629        C  0.73159280  0.14461368  0.97094788    -0.18300
C630        C  0.73129573  0.17296000  0.94201054     0.10100
S631        S  0.84092623  0.10129234  0.95930749    -0.33300
S632        S  0.69124219  0.20579943  0.94062163    -0.33300
H633        H  0.67473706  0.19527358  0.97645415     0.28100
H634        H  0.82606083  0.06473510  0.96322713     0.28100
H635        H  0.81862088  0.15228394  0.90256455     0.18700
H636        H  0.70719644  0.14199151  0.99014566     0.18700
C637        C  0.86745238  0.29328803  0.70430568    -0.07200
C638        C  0.89795049  0.31945796  0.70340230    -0.18300
C639        C  0.92620603  0.31813137  0.67464752     0.10000
C640        C  0.92414730  0.29049634  0.64488484    -0.07100
C641        C  0.89450925  0.26374045  0.64590512    -0.18300
C642        C  0.86643289  0.26446687  0.67522235     0.10100
S643        S  0.96554665  0.35095173  0.67944764    -0.33300
S644        S  0.83020384  0.22777958  0.67503223    -0.33300
H645        H  0.84305029  0.20796948  0.64187195     0.28100
H646        H  0.99395766  0.32409728  0.66976547     0.28100
H647        H  0.90149459  0.34021715  0.72635611     0.18700
H648        H  0.89326380  0.24223438  0.62333457     0.18700
C649        C  0.74720187  0.40646042  0.91095181    -0.07200
C650        C  0.77105199  0.43861091  0.90964898    -0.18300
C651        C  0.77197528  0.46516774  0.93969569     0.10000
C652        C  0.74842112  0.46067308  0.97263876    -0.07100
C653        C  0.72317188  0.42971107  0.97382032    -0.18300
C654        C  0.72216909  0.40260672  0.94344892     0.10100
S655        S  0.78288070  0.01316288  0.92376071    -0.33300
S656        S  0.68856982  0.36373779  0.94687117    -0.33300
H657        H  0.67170997  0.37437811  0.98250124     0.28100
H658        H  0.75589236  0.03499248  0.94438363     0.28100
H659        H  0.78837507  0.44460281  0.88437363     0.18700
H660        H  0.70450274  0.42665817  0.99874488     0.18700
C661        C  0.74465473  0.87765047  0.87701685     0.85400
C662        C  0.70612279  0.87772370  0.85068127    -0.54800
C663        C  0.70676200  0.85453302  0.81814742     0.08400
C664        C  0.74641744  0.83882630  0.81723181     0.19300
C665        C  0.74891669  0.83513060  0.88828532    -0.55500
C666        C  0.74897896  0.81197928  0.85642486     0.08500
C667        C  0.78238342  0.88213385  0.84980982    -0.55000
C668        C  0.78369518  0.85944613  0.81701058     0.09000
H669        H  0.67915555  0.88821920  0.86214920     0.13600
H670        H  0.74561271  0.84313883  0.78562144    -0.00700
H671        H  0.75254799  0.82452381  0.91776587     0.13900
H672        H  0.80912384  0.89207394  0.86239652     0.13700
C673        C  0.83877481  0.79336927  0.74046748     0.85400
C674        C  0.84412528  0.75643466  0.76792573    -0.54800
C675        C  0.82113284  0.75508516  0.80047504     0.08400
C676        C  0.80017971  0.79191774  0.80049556     0.19300
C677        C  0.79545842  0.79130656  0.72951867    -0.55500
C678        C  0.77245854  0.78976581  0.76172860     0.08500
C679        C  0.83858828  0.83189325  0.76648042    -0.55000
C680        C  0.81597366  0.83110530  0.79947727     0.09000
H681        H  0.85777313  0.73079647  0.75714602     0.13600
H682        H  0.80544683  0.79257100  0.83199724    -0.00700
H683        H  0.78440373  0.79125107  0.69987602     0.13900
H684        H  0.84377737  0.85921195  0.75284944     0.13700
C685        C  0.75742985  0.70127505  0.87933322     0.85400
C686        C  0.79559866  0.70156562  0.85228422    -0.54800
C687        C  0.79335699  0.72311622  0.81877290     0.08400
C688        C  0.75358445  0.73874214  0.81851438     0.19300
C689        C  0.75443858  0.74407378  0.88957244    -0.55500
C690        C  0.75214716  0.76643981  0.85706387     0.08500
C691        C  0.71952648  0.69524598  0.85235147    -0.55000
C692        C  0.71663864  0.71800471  0.81949178     0.09000
H693        H  0.82388541  0.69910846  0.86511911     0.13600
H694        H  0.75350354  0.73397709  0.78700819    -0.00700
H695        H  0.75439728  0.75522187  0.91910622     0.13900
H696        H  0.69454350  0.68042228  0.86313080     0.13700
C697        C  0.65965731  0.78263156  0.74171777     0.85400
C698        C  0.65472288  0.82011527  0.76857529    -0.54800
C699        C  0.67832781  0.82223740  0.80091539     0.08400
C700        C  0.69936133  0.78529070  0.80135164     0.19300
C701        C  0.70273826  0.78469092  0.73029628    -0.55500
C702        C  0.72633174  0.78674239  0.76213270     0.08500
C703        C  0.66050005  0.74454202  0.76868371    -0.55000
C704        C  0.68370042  0.74591679  0.80154430     0.09000
H705        H  0.64053832  0.84542166  0.75755963     0.13600
H706        H  0.69516803  0.78526366  0.83294756    -0.00700
H707        H  0.71323401  0.78441837  0.70050338     0.13900
H708        H  0.65517323  0.71694718  0.75574024     0.13700
C709        C  0.83687870  0.79360929  0.37578488     0.85400
C710        C  0.83674656  0.83185844  0.34908627    -0.54800
C711        C  0.81428155  0.83065391  0.31582243     0.08400
C712        C  0.79810038  0.79154356  0.31548199     0.19300
C713        C  0.79369259  0.79163286  0.38649840    -0.55500
C714        C  0.77056221  0.79021028  0.35431965     0.08500
C715        C  0.84211318  0.75639662  0.34847825    -0.55000
C716        C  0.81875224  0.75453031  0.31591463     0.09000
H717        H  0.84080463  0.85954690  0.36224085     0.13600
H718        H  0.80281541  0.79167763  0.28394316    -0.00700
H719        H  0.78281792  0.79154904  0.41616490     0.13900
H720        H  0.85680874  0.73116332  0.35893319     0.13700
C721        C  0.74294937  0.87682165  0.23768593     0.84000
C722        C  0.78068824  0.88147735  0.26462473    -0.54800
C723        C  0.78215668  0.85904396  0.29769489     0.08400
C724        C  0.74468033  0.83889390  0.29820837     0.19300
C725        C  0.74509921  0.83373453  0.22727784    -0.55500
C726        C  0.74632522  0.81128183  0.25965719     0.08500
C727        C  0.70429878  0.87721566  0.26361412    -0.55000
C728        C  0.70517334  0.85499270  0.29693292     0.09000
H729        H  0.80693409  0.89264025  0.25225301     0.13600
H730        H  0.74426653  0.84368121  0.32974028    -0.00700
H731        H  0.74453256  0.82158087  0.19831520     0.13900
H732        H  0.67703883  0.88490305  0.25039985     0.13700
C733        C  0.65792250  0.78463021  0.37471880     0.85400
C734        C  0.65750391  0.74657726  0.34829395    -0.54800
C735        C  0.68089872  0.74700950  0.31582273     0.08400
C736        C  0.69708207  0.78604728  0.31503433     0.19300
C737        C  0.70102439  0.78744633  0.38615449    -0.55500
C738        C  0.72441990  0.78781369  0.35415825     0.08500
C739        C  0.65401512  0.82235668  0.34763027    -0.55000
C740        C  0.67661219  0.82331886  0.31476289     0.09000
H741        H  0.64742805  0.71981848  0.36003831     0.13600
H742        H  0.69217934  0.78550494  0.28345591    -0.00700
H743        H  0.71163961  0.78919401  0.41589721     0.13900
H744        H  0.64605926  0.84935707  0.36060586     0.13700
C745        C  0.75222348  0.69989304  0.23888264     0.85400
C746        C  0.71454903  0.69540496  0.26569300    -0.54800
C747        C  0.71300977  0.71825539  0.29842728     0.08400
C748        C  0.75055021  0.73847784  0.29887086     0.19300
C749        C  0.74983411  0.74278898  0.22779622    -0.55500
C750        C  0.74875583  0.76565854  0.25992047     0.08500
C751        C  0.79108862  0.70018909  0.26489817    -0.55000
C752        C  0.79025480  0.72254682  0.29809983     0.09000
H753        H  0.68829759  0.68415640  0.25325188     0.13600
H754        H  0.75095585  0.73409230  0.33047949    -0.00700
H755        H  0.75019374  0.75428857  0.19851081     0.13900
H756        H  0.81835331  0.69281848  0.25170568     0.13700
O757        O  0.77789423  0.49567356  0.09710489    -0.72800
O758        O  0.78643794  0.57651384  0.02422865    -0.73000
O759        O  0.78302258  0.57155214  0.10236699    -0.72900
O760        O  0.78091865  0.50038371  0.01871667    -0.72900
O761        O  0.71868125  0.50110683  0.01989488    -0.72900
O762        O  0.72159011  0.58002026  0.09563994    -0.72900
O763        O  0.72469423  0.57749365  0.01751399    -0.72800
O764        O  0.71610739  0.50397500  0.09860215    -0.73000
V765        V  0.78092821  0.53605550  0.06053289     1.35200
V766        V  0.72139274  0.54050077  0.05795297     1.35200
C767        C  0.74752859  0.98688029  0.11035494     0.76400
C768        C  0.75714177  0.59031689  0.00763359     0.76500
C769        C  0.75267960  0.58869394  0.11235066     0.76300
C770        C  0.74739918  0.98803365  0.00432953     0.76300
O771        O  0.53450337  0.75301663  0.51818379    -0.72800
O772        O  0.95966193  0.75776168  0.59823406    -0.73000
O773        O  0.95797173  0.75860017  0.51952482    -0.72900
O774        O  0.53452976  0.75272345  0.59733825    -0.72900
O775        O  0.53951934  0.81412135  0.59631876    -0.72900
O776        O  0.96215163  0.81992356  0.52091210    -0.72900
O777        O  0.96498540  0.81914740  0.59937414    -0.72800
O778        O  0.53690842  0.81465291  0.51749846    -0.73000
V779        V  0.99742692  0.75638660  0.55847033     1.35200
V780        V  0.00175455  0.81542082  0.55872516     1.35200
C781        C  0.54794645  0.78318993  0.50366157     0.76400
C782        C  0.95011133  0.78927015  0.61303302     0.76500
C783        C  0.94663975  0.79061789  0.50682807     0.76300
C784        C  0.54948678  0.78264479  0.61105937     0.76300
C785        C  0.75334652  0.61780611  0.14316870    -0.07200
C786        C  0.76422749  0.60686762  0.18089066    -0.18300
C787        C  0.76257146  0.63250181  0.21221682     0.10000
C788        C  0.75275178  0.67111082  0.20532189    -0.07100
C789        C  0.74069003  0.68145281  0.16731130    -0.18300
C790        C  0.74072188  0.65532149  0.13648048     0.10100
S791        S  0.77138528  0.61467007  0.26099635    -0.33300
S792        S  0.72398557  0.67153078  0.08933329    -0.33300
H793        H  0.74897253  0.64877312  0.06724505     0.28100
H794        H  0.76900185  0.57579753  0.25181864     0.28100
H795        H  0.77265604  0.57763044  0.18604250     0.18700
H796        H  0.72994279  0.70959345  0.16116401     0.18700
C797        C  0.57496056  0.78212335  0.47044718    -0.07200
C798        C  0.60596713  0.75664462  0.47070724    -0.18300
C799        C  0.63314472  0.75637622  0.44028158     0.10000
C800        C  0.62972655  0.78291854  0.40904222    -0.07100
C801        C  0.59729626  0.80687965  0.40847398    -0.18300
C802        C  0.57026390  0.80664057  0.43827493     0.10100
S803        S  0.67157081  0.72181237  0.44213000    -0.33300
S804        S  0.52895782  0.83682644  0.43204896    -0.33300
H805        H  0.50290626  0.80947806  0.44561539     0.28100
H806        H  0.65613895  0.69919187  0.47206087     0.28100
H807        H  0.60920034  0.73733959  0.49517560     0.18700
H808        H  0.59145039  0.82526338  0.38386333     0.18700
C809        C  0.74444804  0.95819494  0.14135864    -0.07200
C810        C  0.73598671  0.97022712  0.17932610    -0.18300
C811        C  0.73587501  0.94450802  0.21069658     0.10000
C812        C  0.74254842  0.90526508  0.20381622    -0.07100
C813        C  0.75159340  0.89377855  0.16538526    -0.18300
C814        C  0.75253410  0.91963720  0.13441529     0.10100
S815        S  0.72834659  0.96281609  0.25942065    -0.33300
S816        S  0.76467791  0.90160389  0.08666826    -0.33300
H817        H  0.74280998  0.92816564  0.06556415     0.28100
H818        H  0.73716366  0.00085359  0.25074631     0.28100
H819        H  0.73054487  0.00010486  0.18455225     0.18700
H820        H  0.75924511  0.86488848  0.15872379     0.18700
C821        C  0.86366769  0.79346750  0.41168756    -0.07200
C822        C  0.88917682  0.82381393  0.41787097    -0.18300
C823        C  0.91378032  0.82513430  0.45013169     0.10000
C824        C  0.91666146  0.79357019  0.47564805    -0.07100
C825        C  0.89130475  0.76315750  0.46993762    -0.18300
C826        C  0.86422067  0.76315880  0.43927879     0.10100
S827        S  0.94049349  0.86837945  0.45644431    -0.33300
S828        S  0.83074224  0.72406900  0.43627429    -0.33300
H829        H  0.84416752  0.70354807  0.46884922     0.28100
H830        H  0.92518775  0.87538820  0.49374809     0.28100
H831        H  0.89042193  0.84740923  0.39784431     0.18700
H832        H  0.89249653  0.73936402  0.48995223     0.18700
C833        C  0.63183226  0.78234648  0.70663454    -0.07200
C834        C  0.60290151  0.75450159  0.70439242    -0.18300
C835        C  0.57578203  0.75406647  0.67409045     0.10000
C836        C  0.57747341  0.78146352  0.64399305    -0.07100
C837        C  0.60560280  0.80978007  0.64629457    -0.18300
C838        C  0.63234304  0.81092262  0.67716069     0.10100
S839        S  0.53794623  0.71949296  0.67747044    -0.33300
S840        S  0.66642998  0.84957470  0.67812214    -0.33300
H841        H  0.65069682  0.87082043  0.64711665     0.28100
H842        H  0.50857371  0.74543843  0.66791362     0.28100
H843        H  0.59972415  0.73368543  0.72727320     0.18700
H844        H  0.60661400  0.83117712  0.62365139     0.18700
C845        C  0.75878434  0.67521019  0.91555845    -0.07200
C846        C  0.79148351  0.65262804  0.92329427    -0.18300
C847        C  0.79315415  0.62708378  0.95457507     0.10000
C848        C  0.76005671  0.62071426  0.97745669    -0.07100
C849        C  0.72803719  0.64436900  0.97127979    -0.18300
C850        C  0.72758903  0.67240896  0.94197756     0.10100
S851        S  0.83954822  0.60602329  0.96407725    -0.33300
S852        S  0.68730816  0.70490800  0.94010949    -0.33300
H853        H  0.66262982  0.68381309  0.96414612     0.28100
H854        H  0.82682505  0.56896551  0.96944427     0.28100
H855        H  0.81656751  0.65420223  0.90537654     0.18700
H856        H  0.70352961  0.64153500  0.99027370     0.18700
C857        C  0.86648973  0.79280231  0.70586810    -0.07200
C858        C  0.89667508  0.81930459  0.70460485    -0.18300
C859        C  0.92450161  0.81836406  0.67537735     0.10000
C860        C  0.92225950  0.79086355  0.64552468    -0.07100
C861        C  0.89294687  0.76375619  0.64691706    -0.18300
C862        C  0.86541811  0.76398594  0.67676782     0.10100
S863        S  0.96368723  0.85138972  0.67970550    -0.33300
S864        S  0.82973999  0.72675460  0.67707525    -0.33300
H865        H  0.84514378  0.70475465  0.64660616     0.28100
H866        H  0.99212778  0.82457903  0.66998229     0.28100
H867        H  0.90029038  0.84002329  0.72755112     0.18700
H868        H  0.89154232  0.74235685  0.62427923     0.18700
C869        C  0.74276282  0.90563134  0.91117728    -0.07200
C870        C  0.76064606  0.94103072  0.90605275    -0.18300
C871        C  0.76137943  0.96830883  0.93543956     0.10000
C872        C  0.74421938  0.96079499  0.97170481    -0.07100
C873        C  0.72407511  0.92677100  0.97662169    -0.18300
C874        C  0.72239126  0.89941524  0.94675129     0.10100
S875        S  0.80198399  0.50583340  0.93241981    -0.33300
S876        S  0.69376038  0.85800641  0.95725891    -0.33300
H877        H  0.67932557  0.85284596  0.91943740     0.28100
H878        H  0.77388331  0.53177823  0.94509378     0.28100
H879        H  0.77357425  0.94834880  0.87838504     0.18700
H880        H  0.70949177  0.92143309  0.00394856     0.18700
loop_ 
_geom_bond_atom_site_label_1 
_geom_bond_atom_site_label_2 
_geom_bond_distance 
_geom_bond_site_symmetry_2 
_ccdc_geom_bond_type 
C1            C2   1.617       .  S
C1            C7   1.623       .  S
C1            C5   1.552       .  S
C1          C209   1.532       .  S
C2            H9   1.085       .  S
C2            C3   1.382       .  D
C3            C4   1.488       .  S
C3           C39   1.623       .  S
C4            C8   1.492       .  S
C4            C6   1.643       .  S
C4           H10   1.092       .  S
C5           H11   1.083       .  S
C5            C6   1.362       .  D
C6           C30   1.607       .  S
C7           H12   1.086       .  S
C7            C8   1.378       .  D
C8           C20   1.618       .  S
C13          C14   1.613       .  S
C13          C19   1.623       .  S
C13          C17   1.556       .  S
C13         C197   1.530       .  S
C14          H21   1.085       .  S
C14          C15   1.375       .  D
C15          C16   1.486       .  S
C15          C27   1.614       .  S
C16          C20   1.487       .  S
C16          C18   1.641       .  S
C16          H22   1.093       .  S
C17          H23   1.085       .  S
C17          C18   1.367       .  D
C18          C42   1.611       .  S
C19          H24   1.085       .  S
C19          C20   1.380       .  D
C25          C26   1.623       .  S
C25          C31   1.625       .  S
C25          C29   1.551       .  S
C25         C185   1.541       .  S
C26          H33   1.083       .  S
C26          C27   1.375       .  D
C27          C28   1.491       .  S
C28          C32   1.485       .  S
C28          C30   1.642       .  S
C28          H34   1.092       .  S
C29          H35   1.084       .  S
C29          C30   1.365       .  D
C31          H36   1.084       .  S
C31          C32   1.385       .  D
C32          C44   1.629       .  S
C37          C38   1.619       .  S
C37          C43   1.628       .  S
C37          C41   1.554       .  S
C37         C173   1.542       .  S
C38          H45   1.084       .  S
C38          C39   1.381       .  D
C39          C40   1.491       .  S
C40          C44   1.492       .  S
C40          C42   1.644       .  S
C40          H46   1.092       .  S
C41          H47   1.084       .  S
C41          C42   1.363       .  D
C43          H48   1.084       .  S
C43          C44   1.386       .  D
C49          C50   1.627       .  S
C49          C55   1.619       .  S
C49          C53   1.554       .  S
C49         C161   1.539       .  S
C50          H57   1.084       .  S
C50          C51   1.380       .  D
C51          C52   1.491       .  S
C51          C63   1.620       .  S
C52          C56   1.487       .  S
C52          C54   1.643       .  S
C52          H58   1.094       .  S
C53          H59   1.085       .  S
C53          C54   1.366       .  D
C54          C78   1.613       .  S
C55          H60   1.084       .  S
C55          C56   1.378       .  D
C56          C92   1.622       .  S
C61          C62   1.613       .  S
C61          C67   1.615       .  S
C61          C65   1.559       .  S
C61         C152   1.528       .  S
C62          H69   1.085       .  S
C62          C63   1.380       .  D
C63          C64   1.490       .  S
C64          C68   1.489       .  S
C64          C66   1.641       .  S
C64          H70   1.094       .  S
C65          H71   1.081       .  S
C65          C66   1.362       .  D
C66          C90   1.608       .  S
C67          H72   1.085       .  S
C67          C68   1.381       .  D
C68          C80   1.616       .  S
C73          C74   1.620       .  S
C73          C79   1.623       .  S
C73          C77   1.554       .  S
C73         C140   1.537       .  S
C74          H81   1.084       .  S
C74          C75   1.384       .  D
C75          C76   1.486       .  S
C75          C87   1.624       .  S
C76          C80   1.492       .  S
C76          C78   1.644       .  S
C76          H82   1.094       .  S
C77          H83   1.084       .  S
C77          C78   1.365       .  D
C79          H84   1.085       .  S
C79          C80   1.375       .  D
C85          C86   1.617       .  S
C85          C91   1.617       .  S
C85          C89   1.559       .  S
C85         C128   1.533       .  S
C86          H93   1.085       .  S
C86          C87   1.382       .  D
C87          C88   1.494       .  S
C88          C92   1.492       .  S
C88          C90   1.642       .  S
C88          H94   1.093       .  S
C89          H95   1.080       .  S
C89          C90   1.362       .  D
C91          H96   1.085       .  S
C91          C92   1.383       .  D
O97         V105   1.902   1_565  S
O97         C327   1.265       .  A
O98         V105   1.902       .  S
O98         C108   1.264       .  A
O99         V105   1.903       .  S
O99         C109   1.264       .  A
O100        V105   1.903   1_565  S
O100        C330   1.265       .  A
O101        V106   1.903       .  S
O101        C330   1.264   1_545  A
O102        V106   1.895       .  S
O102        C109   1.263       .  A
O103        V106   1.900       .  S
O103        C108   1.266       .  A
O104        V106   1.899       .  S
O104        C327   1.263   1_545  A
V105        V106   2.084       .  T
C107        O317   1.263       .  A
C107        O324   1.264       .  A
C107        C149   1.467       .  S
C108        C188   1.489   1_554  S
C109        C125   1.468       .  S
C110        O320   1.266       .  A
C110        O321   1.264       .  A
C110        C212   1.477   1_554  S
O111        V559   1.907   1_455  S
O111        C121   1.265       .  A
O112        V119   1.900       .  S
O112        C122   1.265       .  A
O113        V119   1.911       .  S
O113        C123   1.268       .  A
O114        V559   1.908   1_455  S
O114        C124   1.266       .  A
O115        V560   1.903       .  S
O115        C124   1.266       .  A
O116        V120   1.896       .  S
O116        C123   1.262       .  A
O117        V120   1.896       .  S
O117        C122   1.263       .  A
O118        V560   1.899       .  S
O118        C121   1.264       .  A
V119        O551   1.907       .  S
V119        O554   1.908       .  S
V119        V120   2.084       .  T
V120        O555   1.900       .  S
V120        O558   1.902       .  S
C121        C137   1.482       .  S
C122        C200   1.480       .  S
C123        C164   1.492       .  S
C124        C176   1.492       .  S
C125        C126   1.397       .  A
C125        C130   1.406       .  A
C126        C127   1.404       .  A
C126        H135   1.083       .  S
C127        C128   1.421       .  A
C127        S131   1.809       .  S
C128        C129   1.413       .  A
C129        C130   1.398       .  A
C129        H136   1.076       .  S
C130        S132   1.805       .  S
S131        H134   1.407       .  S
S132        H133   1.405       .  S
C137        C138   1.403       .  A
C137        C142   1.409       .  A
C138        C139   1.410       .  A
C138        H147   1.083       .  S
C139        C140   1.424       .  A
C139        S143   1.809       .  S
C140        C141   1.409       .  A
C141        C142   1.393       .  A
C141        H148   1.079       .  S
C142        S144   1.798       .  S
S143        H146   1.406       .  S
S144        H145   1.406       .  S
C149        C150   1.398       .  A
C149        C154   1.406       .  A
C150        C151   1.403       .  A
C150        H159   1.084       .  S
C151        C152   1.421       .  A
C151        S155   1.810       .  S
C152        C153   1.412       .  A
C153        C154   1.396       .  A
C153        H160   1.078       .  S
C154        S156   1.805       .  S
S155        H158   1.407       .  S
S156        H157   1.404       .  S
C161        C162   1.408       .  A
C161        C166   1.424       .  A
C162        C163   1.396       .  A
C162        H171   1.077       .  S
C163        C164   1.415       .  A
C163        S167   1.800       .  S
C164        C165   1.405       .  A
C165        C166   1.409       .  A
C165        H172   1.082       .  S
C166        S168   1.811       .  S
S167        H170   1.408       .  S
S168        H169   1.406       .  S
C173        C174   1.411       .  A
C173        C178   1.425       .  A
C174        C175   1.402       .  A
C174        H183   1.079       .  S
C175        C176   1.414       .  A
C175        S179   1.802       .  S
C176        C177   1.403       .  A
C177        C178   1.408       .  A
C177        H184   1.082       .  S
C178        S180   1.812       .  S
S179        H182   1.408       .  S
S180        H181   1.406       .  S
C185        C186   1.413       .  A
C185        C190   1.421       .  A
C186        C187   1.398       .  A
C186        H195   1.076       .  S
C187        C188   1.415       .  A
C187        S191   1.806       .  S
C188        C189   1.406       .  A
C189        C190   1.406       .  A
C189        H196   1.083       .  S
C190        S192   1.810       .  S
S191        H194   1.396       .  S
S192        H193   1.407       .  S
C197        C198   1.409       .  A
C197        C202   1.423       .  A
C198        C199   1.395       .  A
C198        H207   1.081       .  S
C199        C200   1.411       .  A
C199        S203   1.804       .  S
C200        C201   1.402       .  A
C201        C202   1.404       .  A
C201        H208   1.083       .  S
C202        S204   1.811       .  S
S203        H206   1.407       .  S
S204        H205   1.407       .  S
C209        C210   1.407       .  A
C209        C214   1.429       .  A
C210        C211   1.391       .  A
C210        H219   1.082       .  S
C211        C212   1.405       .  A
C211        S435   1.796       .  S
C212        C213   1.402       .  A
C213        C214   1.407       .  A
C213        H220   1.084   1_556  S
C214        S216   1.807       .  S
S215        C431   1.797   1_545  S
S215        H218   1.406       .  S
S216        H217   1.399       .  S
C221        C222   1.616       .  S
C221        C227   1.623       .  S
C221        C225   1.552       .  S
C221        C429   1.530       .  S
C222        H229   1.084       .  S
C222        C223   1.382       .  D
C223        C224   1.488       .  S
C223        C259   1.623       .  S
C224        C228   1.492       .  S
C224        C226   1.643       .  S
C224        H230   1.092       .  S
C225        H231   1.083       .  S
C225        C226   1.361       .  D
C226        C250   1.608       .  S
C227        H232   1.086       .  S
C227        C228   1.380       .  D
C228        C240   1.619       .  S
C233        C234   1.612       .  S
C233        C239   1.624       .  S
C233        C237   1.558       .  S
C233        C417   1.529       .  S
C234        H241   1.084       .  S
C234        C235   1.374       .  D
C235        C236   1.486       .  S
C235        C247   1.613       .  S
C236        C240   1.488       .  S
C236        C238   1.641       .  S
C236        H242   1.094       .  S
C237        H243   1.084       .  S
C237        C238   1.367       .  D
C238        C262   1.614       .  S
C239        H244   1.085       .  S
C239        C240   1.381       .  D
C245        C246   1.623       .  S
C245        C251   1.624       .  S
C245        C249   1.552       .  S
C245        C405   1.540       .  S
C246        H253   1.083       .  S
C246        C247   1.374       .  D
C247        C248   1.491       .  S
C248        C252   1.484       .  S
C248        C250   1.642       .  S
C248        H254   1.092       .  S
C249        H255   1.084       .  S
C249        C250   1.367       .  D
C251        H256   1.084       .  S
C251        C252   1.383       .  D
C252        C264   1.626       .  S
C257        C258   1.619       .  S
C257        C263   1.627       .  S
C257        C261   1.556       .  S
C257        C393   1.542       .  S
C258        H265   1.084       .  S
C258        C259   1.380       .  D
C259        C260   1.491       .  S
C260        C264   1.492       .  S
C260        C262   1.643       .  S
C260        H266   1.091       .  S
C261        H267   1.085       .  S
C261        C262   1.364       .  D
C263        H268   1.084       .  S
C263        C264   1.384       .  D
C269        C270   1.626       .  S
C269        C275   1.618       .  S
C269        C273   1.553       .  S
C269        C381   1.536       .  S
C270        H277   1.084       .  S
C270        C271   1.380       .  D
C271        C272   1.490       .  S
C271        C283   1.618       .  S
C272        C276   1.487       .  S
C272        C274   1.644       .  S
C272        H278   1.094       .  S
C273        H279   1.085       .  S
C273        C274   1.364       .  D
C274        C298   1.613       .  S
C275        H280   1.084       .  S
C275        C276   1.377       .  D
C276        C312   1.620       .  S
C281        C282   1.611       .  S
C281        C287   1.617       .  S
C281        C285   1.559       .  S
C281        C372   1.530       .  S
C282        H289   1.085       .  S
C282        C283   1.378       .  D
C283        C284   1.491       .  S
C284        C288   1.487       .  S
C284        C286   1.639       .  S
C284        H290   1.093       .  S
C285        H291   1.081       .  S
C285        C286   1.363       .  D
C286        C310   1.608       .  S
C287        H292   1.085       .  S
C287        C288   1.383       .  D
C288        C300   1.618       .  S
C293        C294   1.620       .  S
C293        C299   1.624       .  S
C293        C297   1.555       .  S
C293        C360   1.540       .  S
C294        H301   1.085       .  S
C294        C295   1.385       .  D
C295        C296   1.488       .  S
C295        C307   1.626       .  S
C296        C300   1.492       .  S
C296        C298   1.644       .  S
C296        H302   1.094       .  S
C297        H303   1.085       .  S
C297        C298   1.368       .  D
C299        H304   1.085       .  S
C299        C300   1.374       .  D
C305        C306   1.617       .  S
C305        C311   1.616       .  S
C305        C309   1.558       .  S
C305        C348   1.530       .  S
C306        H313   1.085       .  S
C306        C307   1.383       .  D
C307        C308   1.494       .  S
C308        C312   1.493       .  S
C308        C310   1.643       .  S
C308        H314   1.094       .  S
C309        H315   1.078       .  S
C309        C310   1.359       .  D
C311        H316   1.085       .  S
C311        C312   1.382       .  D
O317        V325   1.897       .  S
O318        V325   1.899       .  S
O318        C328   1.263       .  A
O319        V325   1.901       .  S
O319        C329   1.263       .  A
O320        V325   1.903       .  S
O321        V326   1.905       .  S
O322        V326   1.893       .  S
O322        C329   1.262       .  A
O323        V326   1.901       .  S
O323        C328   1.267       .  A
O324        V326   1.899       .  S
V325        V326   2.083       .  T
C327        C369   1.471       .  S
C328        C408   1.487   1_554  S
C329        C345   1.464       .  S
C330        C432   1.475   1_554  S
O331        V779   1.906   1_455  S
O331        C341   1.264       .  A
O332        V339   1.899       .  S
O332        C342   1.264       .  A
O333        V339   1.912       .  S
O333        C343   1.268       .  A
O334        V779   1.911   1_455  S
O334        C344   1.268       .  A
O335        V780   1.898       .  S
O335        C344   1.264       .  A
O336        V340   1.894       .  S
O336        C343   1.262       .  A
O337        V340   1.894       .  S
O337        C342   1.263       .  A
O338        V780   1.903       .  S
O338        C341   1.266       .  A
V339        O771   1.907       .  S
V339        O774   1.909       .  S
V339        V340   2.085       .  T
V340        O775   1.899       .  S
V340        O778   1.897       .  S
C341        C357   1.484       .  S
C342        C420   1.478       .  S
C343        C384   1.492       .  S
C344        C396   1.490       .  S
C345        C346   1.398       .  A
C345        C350   1.404       .  A
C346        C347   1.404       .  A
C346        H355   1.082       .  S
C347        C348   1.420       .  A
C347        S351   1.810       .  S
C348        C349   1.414       .  A
C349        C350   1.396       .  A
C349        H356   1.073       .  S
C350        S352   1.806       .  S
S351        H354   1.407       .  S
S352        H353   1.406       .  S
C357        C358   1.404       .  A
C357        C362   1.407       .  A
C358        C359   1.413       .  A
C358        H367   1.083       .  S
C359        C360   1.424       .  A
C359        S363   1.808       .  S
C360        C361   1.410       .  A
C361        C362   1.392       .  A
C361        H368   1.080       .  S
C362        S364   1.798       .  S
S363        H366   1.407       .  S
S364        H365   1.406       .  S
C369        C370   1.399       .  A
C369        C374   1.407       .  A
C370        C371   1.403       .  A
C370        H379   1.083       .  S
C371        C372   1.421       .  A
C371        S375   1.810       .  S
C372        C373   1.413       .  A
C373        C374   1.399       .  A
C373        H380   1.077       .  S
C374        S376   1.805       .  S
S375        H378   1.407       .  S
S376        H377   1.404       .  S
C381        C382   1.408       .  A
C381        C386   1.424       .  A
C382        C383   1.395       .  A
C382        H391   1.078       .  S
C383        C384   1.416       .  A
C383        S387   1.801       .  S
C384        C385   1.405       .  A
C385        C386   1.408       .  A
C385        H392   1.082       .  S
C386        S388   1.812       .  S
S387        H390   1.407       .  S
S388        H389   1.406       .  S
C393        C394   1.412       .  A
C393        C398   1.424       .  A
C394        C395   1.402       .  A
C394        H403   1.080       .  S
C395        C396   1.413       .  A
C395        S399   1.803       .  S
C396        C397   1.404       .  A
C397        C398   1.407       .  A
C397        H404   1.083       .  S
C398        S400   1.811       .  S
S399        H402   1.408       .  S
S400        H401   1.406       .  S
C405        C406   1.412       .  A
C405        C410   1.421       .  A
C406        C407   1.396       .  A
C406        H415   1.074       .  S
C407        C408   1.414       .  A
C407        S411   1.807       .  S
C408        C409   1.406       .  A
C409        C410   1.407       .  A
C409        H416   1.082       .  S
C410        S412   1.810       .  S
S411        H414   1.395       .  S
S412        H413   1.406       .  S
C417        C418   1.409       .  A
C417        C422   1.423       .  A
C418        C419   1.395       .  A
C418        H427   1.080       .  S
C419        C420   1.411       .  A
C419        S423   1.804       .  S
C420        C421   1.402       .  A
C421        C422   1.404       .  A
C421        H428   1.083       .  S
C422        S424   1.811       .  S
S423        H426   1.408       .  S
S424        H425   1.407       .  S
C429        C430   1.408       .  A
C429        C434   1.429       .  A
C430        C431   1.393       .  A
C430        H439   1.081       .  S
C431        C432   1.405       .  A
C432        C433   1.400       .  A
C433        C434   1.405       .  A
C433        H440   1.082   1_556  S
C434        S436   1.808       .  S
S435        H438   1.406       .  S
S436        H437   1.399       .  S
C441        C442   1.620       .  S
C441        C447   1.622       .  S
C441        C445   1.553       .  S
C441        C649   1.536       .  S
C442        H449   1.084       .  S
C442        C443   1.385       .  D
C443        C444   1.488       .  S
C443        C479   1.626       .  S
C444        C448   1.492       .  S
C444        C446   1.644       .  S
C444        H450   1.092       .  S
C445        H451   1.084       .  S
C445        C446   1.365       .  D
C446        C470   1.610       .  S
C447        H452   1.085       .  S
C447        C448   1.374       .  D
C448        C460   1.615       .  S
C453        C454   1.613       .  S
C453        C459   1.621       .  S
C453        C457   1.559       .  S
C453        C637   1.532       .  S
C454        H461   1.085       .  S
C454        C455   1.376       .  D
C455        C456   1.486       .  S
C455        C467   1.616       .  S
C456        C460   1.486       .  S
C456        C458   1.640       .  S
C456        H462   1.093       .  S
C457        H463   1.084       .  S
C457        C458   1.369       .  D
C458        C482   1.613       .  S
C459        H464   1.085       .  S
C459        C460   1.379       .  D
C465        C466   1.624       .  S
C465        C471   1.622       .  S
C465        C469   1.553       .  S
C465        C625   1.540       .  S
C466        H473   1.083       .  S
C466        C467   1.378       .  D
C467        C468   1.490       .  S
C468        C472   1.485       .  S
C468        C470   1.642       .  S
C468        H474   1.092       .  S
C469        H475   1.085       .  S
C469        C470   1.366       .  D
C471        H476   1.083       .  S
C471        C472   1.381       .  D
C472        C484   1.625       .  S
C477        C478   1.621       .  S
C477        C483   1.626       .  S
C477        C481   1.555       .  S
C477        C613   1.541       .  S
C478        H485   1.084       .  S
C478        C479   1.382       .  D
C479        C480   1.491       .  S
C480        C484   1.492       .  S
C480        C482   1.644       .  S
C480        H486   1.092       .  S
C481        H487   1.085       .  S
C481        C482   1.363       .  D
C483        H488   1.084       .  S
C483        C484   1.384       .  D
C489        C490   1.626       .  S
C489        C495   1.621       .  S
C489        C493   1.556       .  S
C489        C601   1.543       .  S
C490        H497   1.084       .  S
C490        C491   1.379       .  D
C491        C492   1.491       .  S
C491        C503   1.619       .  S
C492        C496   1.487       .  S
C492        C494   1.642       .  S
C492        H498   1.093       .  S
C493        H499   1.085       .  S
C493        C494   1.367       .  D
C494        C518   1.614       .  S
C495        H500   1.084       .  S
C495        C496   1.381       .  D
C496        C532   1.624       .  S
C501        C502   1.614       .  S
C501        C507   1.615       .  S
C501        C505   1.561       .  S
C501        C592   1.531       .  S
C502        H509   1.085       .  S
C502        C503   1.380       .  D
C503        C504   1.489       .  S
C504        C508   1.489       .  S
C504        C506   1.638       .  S
C504        H510   1.093       .  S
C505        H511   1.079       .  S
C505        C506   1.364       .  D
C506        C530   1.608       .  S
C507        H512   1.085       .  S
C507        C508   1.380       .  D
C508        C520   1.616       .  S
C513        C514   1.621       .  S
C513        C519   1.622       .  S
C513        C517   1.557       .  S
C513        C580   1.540       .  S
C514        H521   1.084       .  S
C514        C515   1.385       .  D
C515        C516   1.487       .  S
C515        C527   1.627       .  S
C516        C520   1.492       .  S
C516        C518   1.644       .  S
C516        H522   1.093       .  S
C517        H523   1.084       .  S
C517        C518   1.367       .  D
C519        H524   1.085       .  S
C519        C520   1.375       .  D
C525        C526   1.619       .  S
C525        C531   1.618       .  S
C525        C529   1.559       .  S
C525        C568   1.538       .  S
C526        H533   1.085       .  S
C526        C527   1.385       .  D
C527        C528   1.495       .  S
C528        C532   1.493       .  S
C528        C530   1.642       .  S
C528        H534   1.092       .  S
C529        H535   1.079       .  S
C529        C530   1.359       .  D
C531        H536   1.085       .  S
C531        C532   1.384       .  D
O537        V545   1.898   1_565  S
O537        C767   1.263       .  A
O538        V545   1.901       .  S
O538        C548   1.263       .  A
O539        V545   1.904       .  S
O539        C549   1.264       .  A
O540        V545   1.904   1_565  S
O540        C770   1.266       .  A
O541        V546   1.906       .  S
O541        C770   1.264   1_545  A
O542        V546   1.896       .  S
O542        C549   1.262       .  A
O543        V546   1.903       .  S
O543        C548   1.267       .  A
O544        V546   1.901       .  S
O544        C767   1.264   1_545  A
V545        V546   2.086       .  T
C547        O757   1.263       .  A
C547        O764   1.264       .  A
C547        C589   1.469       .  S
C548        C628   1.491   1_554  S
C549        C565   1.468       .  S
C550        O760   1.267       .  A
C550        O761   1.264       .  A
C550        C652   1.483   1_554  S
O551        C561   1.265       .  A
O552        V559   1.901       .  S
O552        C562   1.265       .  A
O553        V559   1.910       .  S
O553        C563   1.268       .  A
O554        C564   1.266       .  A
O555        C564   1.265       .  A
O556        V560   1.901   1_655  S
O556        C563   1.264       .  A
O557        V560   1.896   1_655  S
O557        C562   1.263       .  A
O558        C561   1.265       .  A
V559        V560   2.084   1_655  T
C561        C577   1.484       .  S
C562        C640   1.480       .  S
C563        C604   1.495       .  S
C564        C616   1.491       .  S
C565        C566   1.398       .  A
C565        C570   1.404       .  A
C566        C567   1.406       .  A
C566        H575   1.083       .  S
C567        C568   1.421       .  A
C567        S571   1.809       .  S
C568        C569   1.416       .  A
C569        C570   1.399       .  A
C569        H576   1.075       .  S
C570        S572   1.806       .  S
S571        H574   1.406       .  S
S572        H573   1.406       .  S
C577        C578   1.402       .  A
C577        C582   1.409       .  A
C578        C579   1.411       .  A
C578        H587   1.082       .  S
C579        C580   1.423       .  A
C579        S583   1.808       .  S
C580        C581   1.411       .  A
C581        C582   1.395       .  A
C581        H588   1.079       .  S
C582        S584   1.799       .  S
S583        H586   1.407       .  S
S584        H585   1.406       .  S
C589        C590   1.398       .  A
C589        C594   1.406       .  A
C590        C591   1.404       .  A
C590        H599   1.083       .  S
C591        C592   1.421       .  A
C591        S595   1.811       .  S
C592        C593   1.412       .  A
C593        C594   1.398       .  A
C593        H600   1.076       .  S
C594        S596   1.804       .  S
S595        H598   1.407       .  S
S596        H597   1.405       .  S
C601        C602   1.411       .  A
C601        C606   1.423       .  A
C602        C603   1.398       .  A
C602        H611   1.076       .  S
C603        C604   1.414       .  A
C603        S607   1.800       .  S
C604        C605   1.406       .  A
C605        C606   1.410       .  A
C605        H612   1.081       .  S
C606        S608   1.811       .  S
S607        H610   1.407       .  S
S608        H609   1.406       .  S
C613        C614   1.412       .  A
C613        C618   1.424       .  A
C614        C615   1.402       .  A
C614        H623   1.080       .  S
C615        C616   1.414       .  A
C615        S619   1.803       .  S
C616        C617   1.403       .  A
C617        C618   1.406       .  A
C617        H624   1.083       .  S
C618        S620   1.811       .  S
S619        H622   1.408       .  S
S620        H621   1.407       .  S
C625        C626   1.412       .  A
C625        C630   1.421       .  A
C626        C627   1.399       .  A
C626        H635   1.075       .  S
C627        C628   1.416       .  A
C627        S631   1.806       .  S
C628        C629   1.406       .  A
C629        C630   1.406       .  A
C629        H636   1.081       .  S
C630        S632   1.811       .  S
S631        H634   1.396       .  S
S632        H633   1.407       .  S
C637        C638   1.411       .  A
C637        C642   1.422       .  A
C638        C639   1.396       .  A
C638        H647   1.081       .  S
C639        C640   1.411       .  A
C639        S643   1.805       .  S
C640        C641   1.402       .  A
C641        C642   1.405       .  A
C641        H648   1.083       .  S
C642        S644   1.811       .  S
S643        H646   1.408       .  S
S644        H645   1.406       .  S
C649        C650   1.408       .  A
C649        C654   1.423       .  A
C650        C651   1.391       .  A
C650        H659   1.078       .  S
C651        C652   1.407       .  A
C651        S875   1.795       .  S
C652        C653   1.405       .  A
C653        C654   1.412       .  A
C653        H660   1.081       .  S
C654        S656   1.809       .  S
S655        C871   1.796   1_545  S
S655        H658   1.405       .  S
S656        H657   1.406       .  S
C661        C662   1.616       .  S
C661        C667   1.623       .  S
C661        C665   1.552       .  S
C661        C869   1.531       .  S
C662        H669   1.084       .  S
C662        C663   1.381       .  D
C663        C664   1.488       .  S
C663        C699   1.622       .  S
C664        C668   1.492       .  S
C664        C666   1.642       .  S
C664        H670   1.093       .  S
C665        H671   1.083       .  S
C665        C666   1.362       .  D
C666        C690   1.607       .  S
C667        H672   1.086       .  S
C667        C668   1.379       .  D
C668        C680   1.619       .  S
C673        C674   1.614       .  S
C673        C679   1.623       .  S
C673        C677   1.558       .  S
C673        C857   1.532       .  S
C674        H681   1.084       .  S
C674        C675   1.376       .  D
C675        C676   1.486       .  S
C675        C687   1.615       .  S
C676        C680   1.488       .  S
C676        C678   1.641       .  S
C676        H682   1.093       .  S
C677        H683   1.084       .  S
C677        C678   1.367       .  D
C678        C702   1.613       .  S
C679        H684   1.085       .  S
C679        C680   1.380       .  D
C685        C686   1.625       .  S
C685        C691   1.625       .  S
C685        C689   1.550       .  S
C685        C845   1.542       .  S
C686        H693   1.082       .  S
C686        C687   1.377       .  D
C687        C688   1.491       .  S
C688        C692   1.484       .  S
C688        C690   1.642       .  S
C688        H694   1.091       .  S
C689        H695   1.085       .  S
C689        C690   1.365       .  D
C691        H696   1.083       .  S
C691        C692   1.384       .  D
C692        C704   1.628       .  S
C697        C698   1.618       .  S
C697        C703   1.627       .  S
C697        C701   1.556       .  S
C697        C833   1.542       .  S
C698        H705   1.084       .  S
C698        C699   1.380       .  D
C699        C700   1.491       .  S
C700        C704   1.492       .  S
C700        C702   1.643       .  S
C700        H706   1.092       .  S
C701        H707   1.085       .  S
C701        C702   1.366       .  D
C703        H708   1.084       .  S
C703        C704   1.384       .  D
C709        C710   1.627       .  S
C709        C715   1.620       .  S
C709        C713   1.554       .  S
C709        C821   1.541       .  S
C710        H717   1.084       .  S
C710        C711   1.381       .  D
C711        C712   1.490       .  S
C711        C723   1.620       .  S
C712        C716   1.487       .  S
C712        C714   1.644       .  S
C712        H718   1.093       .  S
C713        H719   1.085       .  S
C713        C714   1.364       .  D
C714        C738   1.612       .  S
C715        H720   1.084       .  S
C715        C716   1.380       .  D
C716        C752   1.623       .  S
C721        C722   1.614       .  S
C721        C727   1.617       .  S
C721        C725   1.560       .  S
C721        C812   1.531       .  S
C722        H729   1.085       .  S
C722        C723   1.380       .  D
C723        C724   1.490       .  S
C724        C728   1.489       .  S
C724        C726   1.641       .  S
C724        H730   1.093       .  S
C725        H731   1.080       .  S
C725        C726   1.361       .  D
C726        C750   1.608       .  S
C727        H732   1.085       .  S
C727        C728   1.383       .  D
C728        C740   1.619       .  S
C733        C734   1.617       .  S
C733        C739   1.624       .  S
C733        C737   1.556       .  S
C733        C800   1.536       .  S
C734        H741   1.084       .  S
C734        C735   1.381       .  D
C735        C736   1.488       .  S
C735        C747   1.622       .  S
C736        C740   1.492       .  S
C736        C738   1.643       .  S
C736        H742   1.094       .  S
C737        H743   1.084       .  S
C737        C738   1.368       .  D
C739        H744   1.085       .  S
C739        C740   1.376       .  D
C745        C746   1.614       .  S
C745        C751   1.620       .  S
C745        C749   1.559       .  S
C745        C788   1.532       .  S
C746        H753   1.085       .  S
C746        C747   1.381       .  D
C747        C748   1.493       .  S
C748        C752   1.493       .  S
C748        C750   1.641       .  S
C748        H754   1.093       .  S
C749        H755   1.081       .  S
C749        C750   1.364       .  D
C751        H756   1.085       .  S
C751        C752   1.383       .  D
O757        V765   1.897       .  S
O758        V765   1.900       .  S
O758        C768   1.263       .  A
O759        V765   1.903       .  S
O759        C769   1.265       .  A
O760        V765   1.905       .  S
O761        V766   1.906       .  S
O762        V766   1.898       .  S
O762        C769   1.263       .  A
O763        V766   1.904       .  S
O763        C768   1.267       .  A
O764        V766   1.904       .  S
V765        V766   2.084       .  T
C767        C809   1.469       .  S
C768        C848   1.491   1_554  S
C769        C785   1.471       .  S
C770        C872   1.477   1_554  S
O771        C781   1.265       .  A
O772        V779   1.898       .  S
O772        C782   1.264       .  A
O773        V779   1.914       .  S
O773        C783   1.269       .  A
O774        C784   1.267       .  A
O775        C784   1.264       .  A
O776        V780   1.896   1_655  S
O776        C783   1.262       .  A
O777        V780   1.900   1_655  S
O777        C782   1.265       .  A
O778        C781   1.264       .  A
V779        V780   2.084   1_655  T
C781        C797   1.480       .  S
C782        C860   1.480       .  S
C783        C824   1.495       .  S
C784        C836   1.489       .  S
C785        C786   1.398       .  A
C785        C790   1.409       .  A
C786        C787   1.403       .  A
C786        H795   1.084       .  S
C787        C788   1.420       .  A
C787        S791   1.808       .  S
C788        C789   1.413       .  A
C789        C790   1.400       .  A
C789        H796   1.078       .  S
C790        S792   1.806       .  S
S791        H794   1.407       .  S
S792        H793   1.405       .  S
C797        C798   1.403       .  A
C797        C802   1.407       .  A
C798        C799   1.411       .  A
C798        H807   1.084       .  S
C799        C800   1.424       .  A
C799        S803   1.808       .  S
C800        C801   1.409       .  A
C801        C802   1.392       .  A
C801        H808   1.080       .  S
C802        S804   1.799       .  S
S803        H806   1.407       .  S
S804        H805   1.406       .  S
C809        C810   1.399       .  A
C809        C814   1.406       .  A
C810        C811   1.404       .  A
C810        H819   1.083   1_565  S
C811        C812   1.420       .  A
C811        S815   1.808       .  S
C812        C813   1.413       .  A
C813        C814   1.397       .  A
C813        H820   1.075       .  S
C814        S816   1.805       .  S
S815        H818   1.407   1_565  S
S816        H817   1.403       .  S
C821        C822   1.409       .  A
C821        C826   1.424       .  A
C822        C823   1.397       .  A
C822        H831   1.078       .  S
C823        C824   1.416       .  A
C823        S827   1.801       .  S
C824        C825   1.405       .  A
C825        C826   1.410       .  A
C825        H832   1.082       .  S
C826        S828   1.811       .  S
S827        H830   1.407       .  S
S828        H829   1.406       .  S
C833        C834   1.412       .  A
C833        C838   1.424       .  A
C834        C835   1.402       .  A
C834        H843   1.078       .  S
C835        C836   1.412       .  A
C835        S839   1.803       .  S
C836        C837   1.404       .  A
C837        C838   1.408       .  A
C837        H844   1.081       .  S
C838        S840   1.811       .  S
S839        H842   1.408       .  S
S840        H841   1.407       .  S
C845        C846   1.412       .  A
C845        C850   1.421       .  A
C846        C847   1.399       .  A
C846        H855   1.072       .  S
C847        C848   1.416       .  A
C847        S851   1.806       .  S
C848        C849   1.406       .  A
C849        C850   1.407       .  A
C849        H856   1.081       .  S
C850        S852   1.810       .  S
S851        H854   1.392       .  S
S852        H853   1.407       .  S
C857        C858   1.410       .  A
C857        C862   1.423       .  A
C858        C859   1.397       .  A
C858        H867   1.080       .  S
C859        C860   1.410       .  A
C859        S863   1.804       .  S
C860        C861   1.402       .  A
C861        C862   1.405       .  A
C861        H868   1.082       .  S
C862        S864   1.811       .  S
S863        H866   1.408       .  S
S864        H865   1.406       .  S
C869        C870   1.407       .  A
C869        C874   1.429       .  A
C870        C871   1.391       .  A
C870        H879   1.082       .  S
C871        C872   1.405       .  A
C872        C873   1.401       .  A
C873        C874   1.406       .  A
C873        H880   1.083   1_556  S
C874        S876   1.807       .  S
S875        H878   1.407       .  S
S876        H877   1.400       .  S
