geometry optimzed in LAMMPS
_audit_creation_date              2020-11-30 
_audit_creation_method            'lammps2cif' 
_symmetry_space_group_name_H-M    'P1' 
_symmetry_Int_Tables_number       1 
_symmetry_cell_setting            triclinic 
loop_ 
_symmetry_equiv_pos_as_xyz 
  x,y,z 
_cell_length_a                    63.16755798 
_cell_length_b                    38.240648889950336 
_cell_length_c                    37.149659142428824 
_cell_angle_alpha                 89.54499339831926 
_cell_angle_beta                  89.84272786063705 
_cell_angle_gamma                 89.99679173051763 
loop_ 
_atom_site_label 
_atom_site_type_symbol 
_atom_site_fract_x 
_atom_site_fract_y 
_atom_site_fract_z 
_atom_site_charge 
O1          O  0.02405013  0.47163461  0.75767343    -0.74300
O2          O  0.98033338  0.04266039  0.74614674    -0.74400
O3          O  0.98123710  0.47161682  0.74905130    -0.74400
O4          O  0.02267609  0.04332631  0.75631844    -0.74500
O5          O  0.02881961  0.04129335  0.69769737    -0.74400
O6          O  0.98561152  0.46978638  0.68970148    -0.74400
O7          O  0.98597611  0.04173295  0.68685729    -0.74400
O8          O  0.02822765  0.46997106  0.69804889    -0.74400
Ni9        Ni  0.00214619  0.50695444  0.75430730     1.25400
Ni10       Ni  0.00710352  0.00606304  0.69102341     1.25400
C11         C  0.03324318  0.45940441  0.72954139     0.87800
C12         C  0.97620121  0.05379251  0.71427330     0.87800
C13         C  0.97642267  0.45870123  0.71858213     0.87800
C14         C  0.03322634  0.05362954  0.72890652     0.88000
C15         C  0.13653571  0.25752218  0.76793156    -0.02400
C16         C  0.87032127  0.25436129  0.71476426    -0.02400
C17         C  0.63477958  0.49635365  0.73973558    -0.02400
O18         O  0.48029863  0.28475595  0.79373537    -0.74300
O19         O  0.52039467  0.20882675  0.78968896    -0.74400
O20         O  0.52318535  0.28010278  0.79048949    -0.74400
O21         O  0.47775040  0.21365283  0.79427906    -0.74500
O22         O  0.47637054  0.21300510  0.73435552    -0.74400
O23         O  0.52099723  0.28212182  0.73059767    -0.74400
O24         O  0.51932447  0.21128598  0.72993184    -0.74400
O25         O  0.47784971  0.28395854  0.73402097    -0.74400
Ni26       Ni  0.50048254  0.24685092  0.79417689     1.25400
Ni27       Ni  0.49857019  0.24765820  0.73011377     1.25400
C28         C  0.47223694  0.29660437  0.76436387     0.87800
C29         C  0.52648300  0.19746919  0.75891177     0.87800
C30         C  0.52945989  0.29231935  0.76010568     0.87800
C31         C  0.46984761  0.20178502  0.76513278     0.88000
C32         C  0.36317430  0.99754376  0.77252415    -0.02400
O33         O  0.23877867  0.34784681  0.06524825    -0.74300
O34         O  0.27009680  0.39341912  0.98898186    -0.74400
O35         O  0.27086129  0.39518071  0.06271614    -0.74400
O36         O  0.23853326  0.34488368  0.99282115    -0.74500
O37         O  0.21523378  0.38798397  0.99025411    -0.74400
O38         O  0.24733664  0.43860898  0.06183589    -0.74400
O39         O  0.24645954  0.43651417  0.98796504    -0.74400
O40         O  0.21512926  0.39106950  0.06324253    -0.74400
Ni41       Ni  0.25548699  0.36894991  0.02745130     1.25400
Ni42       Ni  0.23025486  0.41514600  0.02580459     1.25400
C43         C  0.22150007  0.36186223  0.07627215     0.87800
C44         C  0.26315266  0.42221923  0.97532878     0.87800
C45         C  0.26424882  0.42455068  0.07467388     0.87800
C46         C  0.22134515  0.35747675  0.98017490     0.88000
O47         O  0.01953568  0.46357530  0.28695640    -0.74300
O48         O  0.97644621  0.03340537  0.27821081    -0.74400
O49         O  0.97709988  0.46287274  0.27566043    -0.74400
O50         O  0.01919267  0.03407681  0.28847086    -0.74500
O51         O  0.02376592  0.03644928  0.22890396    -0.74400
O52         O  0.98316969  0.46432875  0.21647282    -0.74400
O53         O  0.98141814  0.03561470  0.21898984    -0.74400
O54         O  0.02590185  0.46647763  0.22846899    -0.74400
Ni55       Ni  0.99797439  0.49847574  0.28420760     1.25400
Ni56       Ni  0.00381355  0.50066502  0.22085771     1.25400
C57         C  0.03054493  0.45429716  0.25978303     0.87800
C58         C  0.97188738  0.04648734  0.24740047     0.87800
C59         C  0.97333796  0.45183588  0.24382070     0.87800
C60         C  0.02846204  0.04672867  0.26046344     0.88000
C61         C  0.13326420  0.24916574  0.27889732    -0.02400
C62         C  0.86653387  0.25161439  0.23045092    -0.02400
C63         C  0.63856310  0.50124383  0.22087330    -0.02400
C64         C  0.36597267  0.49869486  0.27588358    -0.02400
O65         O  0.48395056  0.28337872  0.29102870    -0.74300
O66         O  0.52599322  0.21196405  0.27775257    -0.74400
O67         O  0.52709266  0.28401882  0.28297210    -0.74400
O68         O  0.48329580  0.21251212  0.28476391    -0.74500
O69         O  0.47952602  0.21825747  0.22553420    -0.74400
O70         O  0.52353544  0.28831183  0.22346654    -0.74400
O71         O  0.52234796  0.21635295  0.21821568    -0.74400
O72         O  0.48076224  0.28912630  0.23167775    -0.74400
Ni73       Ni  0.50530065  0.24789069  0.28621900     1.25400
Ni74       Ni  0.50150884  0.25323896  0.22264983     1.25400
C75         C  0.47514553  0.29774634  0.26365060     0.87800
C76         C  0.53040708  0.20129370  0.24600473     0.87800
C77         C  0.53227212  0.29838302  0.25274169     0.87800
C78         C  0.47415279  0.20355804  0.25532727     0.88000
O79         O  0.73306807  0.12182573  0.93255347    -0.74300
O80         O  0.76211608  0.17263844  0.00632059    -0.74400
O81         O  0.76501250  0.16924560  0.93352042    -0.74400
O82         O  0.73012601  0.12518403  0.00556097    -0.74500
O83         O  0.75307429  0.08120709  0.00965735    -0.74400
O84         O  0.78868283  0.12649183  0.93950947    -0.74400
O85         O  0.78519758  0.12877343  0.01185304    -0.74400
O86         O  0.75668214  0.07863048  0.93705565    -0.74400
Ni87       Ni  0.74674453  0.14875775  0.96931074     1.25400
Ni88       Ni  0.77174439  0.10225090  0.97470048     1.25400
C89         C  0.74004700  0.09187912  0.92276507     0.87800
C90         C  0.77849393  0.15902482  0.02111201     0.87800
C91         C  0.78269198  0.15522491  0.92473422     0.87800
C92         C  0.73568524  0.09572916  0.01931335     0.88000
O93         O  0.26576232  0.08754449  0.56442711    -0.74300
O94         O  0.23654050  0.13826632  0.49005219    -0.74400
O95         O  0.23443394  0.13578724  0.56213986    -0.74400
O96         O  0.26854885  0.09003114  0.49158780    -0.74500
O97         O  0.24505791  0.04667018  0.48818697    -0.74400
O98         O  0.21023858  0.09359409  0.55855594    -0.74400
O99         O  0.21304701  0.09508102  0.48607432    -0.74400
O100        O  0.24188752  0.04470117  0.56147264    -0.74400
Ni101      Ni  0.25220153  0.11427460  0.52706812     1.25400
Ni102      Ni  0.22674463  0.06835569  0.52339917     1.25400
C103        C  0.25844388  0.05813268  0.57566652     0.87800
C104        C  0.21947693  0.12565089  0.47676805     0.87800
C105        C  0.21648555  0.12297679  0.57125981     0.87800
C106        C  0.26267005  0.06072774  0.47852604     0.88000
O107        O  0.77290142  0.37123365  0.51455191    -0.74300
O108        O  0.74059142  0.42550264  0.44719830    -0.74400
O109        O  0.74004416  0.41745946  0.51920780    -0.74400
O110        O  0.77352442  0.37850032  0.44219545    -0.74500
O111        O  0.75108046  0.33388032  0.43826636    -0.74400
O112        O  0.71648578  0.37529516  0.51169428    -0.74400
O113        O  0.71868786  0.38085081  0.43969401    -0.74400
O114        O  0.74935284  0.32798783  0.51104209    -0.74400
Ni115      Ni  0.75761740  0.39968527  0.48090861     1.25400
Ni116      Ni  0.73311954  0.35290299  0.47508135     1.25400
C117        C  0.76656572  0.34065383  0.52377261     0.87800
C118        C  0.72395557  0.41259034  0.43286103     0.87800
C119        C  0.72210003  0.40367596  0.52712289     0.87800
C120        C  0.76808789  0.34929445  0.42802451     0.88000
C121        C  0.27671055  0.04323326  0.45200073     0.01400
C122        C  0.29757039  0.03379030  0.46174025     0.04300
C123        C  0.31150039  0.01958502  0.43597754    -0.11800
C124        C  0.30553357  0.01820045  0.39944176     0.23600
C125        C  0.28461392  0.02735904  0.38970359    -0.12400
C126        C  0.27005561  0.03863497  0.41611702     0.05000
C127        C  0.32193379  0.01213631  0.37084592     0.27400
C128        C  0.33635283  0.03870489  0.36236317    -0.13100
C129        C  0.35064363  0.03558774  0.33294798     0.05500
C130        C  0.35140572  0.00393224  0.31093354    -0.09000
C131        C  0.33542646  0.97798253  0.32019835     0.06300
C132        C  0.32191415  0.98161088  0.35050480    -0.13400
Br133      Br  0.27635737  0.02706294  0.33970041    -0.05500
Br134      Br  0.30767152  0.04226999  0.50986155     0.00200
Br135      Br  0.36376922  0.08051947  0.32206106     0.00600
Br136      Br  0.30333553  0.94394284  0.36590647    -0.03800
Br137      Br  0.24151792  0.05074767  0.40243897     0.00700
Br138      Br  0.33929572  0.00379115  0.45020379    -0.03100
Br139      Br  0.33486158  0.08145935  0.39067381    -0.04000
Br140      Br  0.33115032  0.43485237  0.29462287     0.00000
C141        C  0.38260784  0.46664520  0.27861331     0.01400
C142        C  0.39899106  0.46301312  0.25118890     0.04300
C143        C  0.41383226  0.43527160  0.25204831    -0.11800
C144        C  0.41137478  0.40736414  0.27618276     0.23600
C145        C  0.39557165  0.40926366  0.30258370    -0.12400
C146        C  0.38331486  0.44007543  0.30692961     0.05000
C147        C  0.42658900  0.37724324  0.27523643     0.27400
C148        C  0.42421223  0.35006690  0.25006328    -0.13100
C149        C  0.43975898  0.32373282  0.24697424     0.05500
C150        C  0.45806343  0.32435497  0.26887959    -0.09000
C151        C  0.45978827  0.35053967  0.29555481     0.06300
C152        C  0.44425524  0.37697334  0.29832456    -0.13400
Br153      Br  0.39088121  0.36863091  0.33300016    -0.05500
Br154      Br  0.40058710  0.49107578  0.20769822     0.00200
Br155      Br  0.43505689  0.28558978  0.21402151     0.00600
Br156      Br  0.44744726  0.41394552  0.33300942    -0.03800
Br157      Br  0.37250168  0.44434894  0.35572993     0.00700
Br158      Br  0.43736650  0.43387873  0.21843447    -0.03100
Br159      Br  0.39969296  0.34879677  0.21944201    -0.04000
Br160      Br  0.48360327  0.35153548  0.32800635     0.00000
C161        C  0.38142207  0.03224437  0.26908928     0.01400
C162        C  0.39955290  0.03704835  0.29259277     0.04300
C163        C  0.41473635  0.06373946  0.28670137    -0.11800
C164        C  0.41119155  0.09034403  0.26142588     0.23600
C165        C  0.39339968  0.08789755  0.23899330    -0.12400
C166        C  0.37979833  0.05810143  0.24017780     0.05000
C167        C  0.42648798  0.12065026  0.25845042     0.27400
C168        C  0.42643923  0.14751147  0.28437948    -0.13100
C169        C  0.44163716  0.17473220  0.28299802     0.05500
C170        C  0.45732290  0.17557833  0.25566308    -0.09000
C171        C  0.45692684  0.14913012  0.22899990     0.06300
C172        C  0.44179498  0.12178115  0.23070818    -0.13400
Br173      Br  0.38806391  0.12626445  0.20589698    -0.05500
Br174      Br  0.40324458  0.01219351  0.33749782     0.00200
Br175      Br  0.43998322  0.21196223  0.31774515     0.00600
Br176      Br  0.44246564  0.08475679  0.19567846    -0.03800
Br177      Br  0.36251780  0.05395541  0.19739788     0.00700
Br178      Br  0.44077243  0.06475217  0.31421456    -0.03100
Br179      Br  0.40553970  0.14686079  0.32229201    -0.04000
Br180      Br  0.47761327  0.14880431  0.19058550     0.00000
C181        C  0.71039543  0.43451625  0.40850406     0.01400
C182        C  0.68838620  0.42738676  0.40544548     0.04300
C183        C  0.67627498  0.44382489  0.37835564    -0.11800
C184        C  0.68540499  0.46984976  0.35632169     0.23600
C185        C  0.70620625  0.48115389  0.36333405    -0.12400
C186        C  0.71900239  0.46271747  0.38804279     0.05000
C187        C  0.67460672  0.48177089  0.32267551     0.27400
C188        C  0.68268979  0.47096113  0.28961157    -0.13100
C189        C  0.67375300  0.48308552  0.25704626     0.05500
C190        C  0.65369836  0.50166027  0.25646976    -0.09000
C191        C  0.64895415  0.51855488  0.29058388     0.06300
C192        C  0.65838408  0.50664824  0.32316302    -0.13400
Br193      Br  0.71746052  0.52082532  0.33693965    -0.05500
Br194      Br  0.67401030  0.39694595  0.43943381     0.00200
Br195      Br  0.69226993  0.47499549  0.21626949     0.00600
Br196      Br  0.64999510  0.52552233  0.36935548    -0.03800
Br197      Br  0.74851975  0.47555867  0.39085161     0.00700
Br198      Br  0.64732492  0.42982831  0.37058571    -0.03100
Br199      Br  0.70580160  0.43712756  0.28929159    -0.04000
Br200      Br  0.63512852  0.06355740  0.29637644     0.00000
C201        C  0.65384232  0.01085099  0.18810805     0.01400
C202        C  0.65877091  0.98839817  0.15784712     0.04300
C203        C  0.67147350  0.00068596  0.12863605    -0.11800
C204        C  0.68134874  0.03351821  0.12967160     0.23600
C205        C  0.67881323  0.05432993  0.16009407    -0.12400
C206        C  0.66550174  0.04355421  0.18877404     0.05000
C207        C  0.69525107  0.04620520  0.09946777     0.27400
C208        C  0.71747698  0.04470874  0.10284331    -0.13100
C209        C  0.73066482  0.06136505  0.07719085     0.05500
C210        C  0.72178514  0.07819086  0.04664003    -0.09000
C211        C  0.69948148  0.07821004  0.04249723     0.06300
C212        C  0.68635441  0.06292286  0.06910904    -0.13400
Br213      Br  0.69313770  0.09936490  0.16104207    -0.05500
Br214      Br  0.65443024  0.43866586  0.15720667     0.00200
Br215      Br  0.76076192  0.06353133  0.08618264     0.00600
Br216      Br  0.65602308  0.06569995  0.06438212    -0.03800
Br217      Br  0.66276585  0.07756329  0.22610737     0.00700
Br218      Br  0.67708869  0.47232635  0.08698265    -0.03100
Br219      Br  0.72980644  0.02052857  0.14349111    -0.04000
Br220      Br  0.68650762  0.09807414  0.99990523     0.00000
C221        C  0.61868930  0.02813758  0.22261620     0.01400
C222        C  0.61289340  0.05316893  0.19420791     0.04300
C223        C  0.59486642  0.07497279  0.19781177    -0.11800
C224        C  0.58496792  0.07908839  0.23112860     0.23600
C225        C  0.58911038  0.05432058  0.25817467    -0.12400
C226        C  0.60347922  0.02643956  0.25189777     0.05000
C227        C  0.57089798  0.11028706  0.23705428     0.27400
C228        C  0.57898248  0.14439756  0.23092350    -0.13100
C229        C  0.56513719  0.17324355  0.22921695     0.05500
C230        C  0.54421576  0.17001493  0.24187347    -0.09000
C231        C  0.53653482  0.13641562  0.25119417     0.06300
C232        C  0.54913825  0.10650714  0.24521211    -0.13400
Br233      Br  0.57681322  0.06064545  0.30559074    -0.05500
Br234      Br  0.62643068  0.06091494  0.14772788     0.00200
Br235      Br  0.57433148  0.21565322  0.20593766     0.00600
Br236      Br  0.53593837  0.06096348  0.24475295    -0.03800
Br237      Br  0.60233200  0.98956539  0.28774705     0.00700
Br238      Br  0.58264332  0.09969858  0.15676235    -0.03100
Br239      Br  0.60903970  0.15200521  0.22482359    -0.04000
Br240      Br  0.50865473  0.13091683  0.27154355     0.00000
C241        C  0.62697666  0.46362214  0.21768431     0.01400
C242        C  0.61015246  0.45685296  0.19233087     0.04300
C243        C  0.59604231  0.42803161  0.19701960    -0.11800
C244        C  0.59586529  0.40851444  0.22936288     0.23600
C245        C  0.61248022  0.41431224  0.25362870    -0.12400
C246        C  0.62953816  0.43632430  0.24411141     0.05000
C247        C  0.57937337  0.38050622  0.23673484     0.27400
C248        C  0.55760940  0.38904451  0.23980369    -0.13100
C249        C  0.54221437  0.36233013  0.24456740     0.05500
C250        C  0.54841796  0.32726911  0.25088270    -0.09000
C251        C  0.57022962  0.31965674  0.25206810     0.06300
C252        C  0.58535913  0.34506579  0.24158357    -0.13400
Br253      Br  0.61272173  0.39183143  0.30030114    -0.05500
Br254      Br  0.60670800  0.48293619  0.14834598     0.00200
Br255      Br  0.51256416  0.37401695  0.24349570     0.00600
Br256      Br  0.61392051  0.33024590  0.23103360    -0.03800
Br257      Br  0.65560088  0.41103953  0.24897439     0.00700
Br258      Br  0.57731018  0.41413139  0.15854135    -0.03100
Br259      Br  0.54883127  0.43741733  0.23826868    -0.04000
Br260      Br  0.57959773  0.27557257  0.27128729     0.00000
C261        C  0.78164060  0.33300516  0.39952525     0.01400
C262        C  0.78985615  0.35358572  0.37097639     0.04300
C263        C  0.80267897  0.33841231  0.34410603    -0.11800
C264        C  0.80795145  0.30250230  0.34559636     0.23600
C265        C  0.79923175  0.28163877  0.37343689    -0.12400
C266        C  0.78624080  0.29668812  0.40026887     0.05000
C267        C  0.82225952  0.28631042  0.31778756     0.27400
C268        C  0.81411287  0.27550091  0.28467676    -0.13100
C269        C  0.82716898  0.25845143  0.25914063     0.05500
C270        C  0.84995125  0.25705029  0.26330996    -0.09000
C271        C  0.85699820  0.26292950  0.29974097     0.06300
C272        C  0.84344711  0.27832431  0.32588676    -0.13400
Br273      Br  0.80468297  0.23194201  0.37406701    -0.05500
Br274      Br  0.78266162  0.40252007  0.36704252     0.00200
Br275      Br  0.81128575  0.22809714  0.22789506     0.00600
Br276      Br  0.85435115  0.29202323  0.37230565    -0.03800
Br277      Br  0.77560502  0.26719298  0.43871135     0.00700
Br278      Br  0.81201410  0.36711687  0.30443930    -0.03100
Br279      Br  0.78425110  0.28265100  0.27530325    -0.04000
Br280      Br  0.88487313  0.25063775  0.31647492     0.00000
C281        C  0.78986514  0.17826998  0.04951540     0.01400
C282        C  0.81108090  0.18857035  0.04414636     0.04300
C283        C  0.82236519  0.20479586  0.07210041    -0.11800
C284        C  0.81281143  0.20954168  0.10613251     0.23600
C285        C  0.79147098  0.19959589  0.11124466    -0.12400
C286        C  0.77989149  0.18483320  0.08274770     0.05000
C287        C  0.82607751  0.22135586  0.13701960     0.27400
C288        C  0.83974882  0.19741197  0.15342981    -0.13100
C289        C  0.85569975  0.20912278  0.17663085     0.05500
C290        C  0.85430528  0.24273502  0.19379594    -0.09000
C291        C  0.84050125  0.26735889  0.17573538     0.06300
C292        C  0.82728772  0.25671931  0.14679061    -0.13400
Br293      Br  0.77833772  0.20392052  0.15772489    -0.05500
Br294      Br  0.82472741  0.18036429  0.99842769     0.00200
Br295      Br  0.88205302  0.18580215  0.16653601     0.00600
Br296      Br  0.81000209  0.29006532  0.12084456    -0.03800
Br297      Br  0.75063763  0.17169946  0.08985767     0.00700
Br298      Br  0.85126951  0.21947978  0.06427227    -0.03100
Br299      Br  0.83813043  0.14838083  0.14107014    -0.04000
Br300      Br  0.83840190  0.31571148  0.18892825     0.00000
C301        C  0.14732364  0.23649195  0.31284774     0.01400
C302        C  0.15700700  0.20196635  0.31152638     0.04300
C303        C  0.16550538  0.18551731  0.34220555    -0.11800
C304        C  0.16925484  0.20449629  0.37331186     0.23600
C305        C  0.16182755  0.23893458  0.37555796    -0.12400
C306        C  0.14938739  0.25397501  0.34746038     0.05000
C307        C  0.18211156  0.18795746  0.40260276     0.27400
C308        C  0.17218754  0.16974945  0.43113271    -0.13100
C309        C  0.18438122  0.14990284  0.45570933     0.05500
C310        C  0.20663635  0.14719391  0.45126164    -0.09000
C311        C  0.21652610  0.16612125  0.42303271     0.06300
C312        C  0.20433465  0.18668855  0.39920993    -0.13400
Br313      Br  0.16823742  0.26454402  0.41894371    -0.05500
Br314      Br  0.16272834  0.17656858  0.26785809     0.00200
Br315      Br  0.17039972  0.12790031  0.49631279     0.00600
Br316      Br  0.21801277  0.21255592  0.36095736    -0.03800
Br317      Br  0.13365245  0.29475640  0.36326952     0.00700
Br318      Br  0.17269649  0.13612162  0.34181874    -0.03100
Br319      Br  0.14174897  0.17126614  0.43571852    -0.04000
Br320      Br  0.24665690  0.16230312  0.41508109     0.00000
C321        C  0.04904113  0.42983038  0.26517727     0.01400
C322        C  0.05853516  0.41222633  0.23554332     0.04300
C323        C  0.07546751  0.38878327  0.24121516    -0.11800
C324        C  0.08262234  0.38122202  0.27621330     0.23600
C325        C  0.07445395  0.39994451  0.30539495    -0.12400
C326        C  0.05783213  0.42411343  0.30025862     0.05000
C327        C  0.09535811  0.34895322  0.28278074     0.27400
C328        C  0.08472213  0.31726319  0.28683697    -0.13100
C329        C  0.09573171  0.28514551  0.28454356     0.05500
C330        C  0.11895137  0.28379988  0.28529003    -0.09000
C331        C  0.12912538  0.31798561  0.28557377     0.06300
C332        C  0.11741149  0.34945239  0.28250855    -0.13400
Br333      Br  0.08588983  0.39098747  0.35280668    -0.05500
Br334      Br  0.04804685  0.41695046  0.18683355     0.00200
Br335      Br  0.07600222  0.24859190  0.27077373     0.00600
Br336      Br  0.13134333  0.39436965  0.27783067    -0.03800
Br337      Br  0.04781496  0.44816611  0.34275913     0.00700
Br338      Br  0.08880892  0.36585207  0.20097969    -0.03100
Br339      Br  0.05395770  0.31900963  0.29201534    -0.04000
Br340      Br  0.15930426  0.32490946  0.29107451     0.00000
C341        C  0.04462727  0.07412026  0.26367982     0.01400
C342        C  0.04026913  0.10769762  0.24984622     0.04300
C343        C  0.05613167  0.13335833  0.24937755    -0.11800
C344        C  0.07630120  0.12585663  0.26367394     0.23600
C345        C  0.08082933  0.09201325  0.27688453    -0.12400
C346        C  0.06508037  0.06600373  0.27633573     0.05000
C347        C  0.09212480  0.15433035  0.26707408     0.27400
C348        C  0.10389790  0.16559972  0.23726318    -0.13100
C349        C  0.11766069  0.19481159  0.23950675     0.05500
C350        C  0.11879014  0.21528961  0.27247744    -0.09000
C351        C  0.10710260  0.20094813  0.30306286     0.06300
C352        C  0.09441233  0.17087368  0.30008530    -0.13400
Br353      Br  0.10861184  0.08150965  0.29569738    -0.05500
Br354      Br  0.01241440  0.11859763  0.23158342     0.00200
Br355      Br  0.13557083  0.19970993  0.19686112     0.00600
Br356      Br  0.07818216  0.15334002  0.34101265    -0.03800
Br357      Br  0.07197982  0.01887286  0.29059781     0.00700
Br358      Br  0.05018464  0.17854769  0.22845940    -0.03100
Br359      Br  0.10115895  0.13896642  0.19320926    -0.04000
Br360      Br  0.10356909  0.22469538  0.34857592     0.00000
C361        C  0.88216968  0.21969522  0.24056164     0.01400
C362        C  0.90484780  0.22149708  0.23597418     0.04300
C363        C  0.91708234  0.19116422  0.23079837    -0.11800
C364        C  0.90903289  0.15825421  0.24002590     0.23600
C365        C  0.88797661  0.15573490  0.25189595    -0.12400
C366        C  0.87445269  0.18554759  0.25142622     0.05000
C367        C  0.92391729  0.12783727  0.24255409     0.27400
C368        C  0.92540193  0.10289338  0.21487080    -0.13100
C369        C  0.94105220  0.07649023  0.21611641     0.05500
C370        C  0.95548848  0.07472148  0.24523389    -0.09000
C371        C  0.95379027  0.09982011  0.27310475     0.06300
C372        C  0.93787885  0.12564336  0.27198041    -0.13400
Br373      Br  0.87774346  0.11041370  0.26757598    -0.05500
Br374      Br  0.92216679  0.25933802  0.25232656     0.00200
Br375      Br  0.94197032  0.04244319  0.17795272     0.00600
Br376      Br  0.93509750  0.15856574  0.31098673    -0.03800
Br377      Br  0.84611327  0.17705504  0.26820761     0.00700
Br378      Br  0.94555789  0.19482568  0.21163028    -0.03100
Br379      Br  0.90586539  0.10448705  0.17521988    -0.04000
Br380      Br  0.97404535  0.10134857  0.31204264     0.00000
C381        C  0.95762743  0.42389225  0.23827305     0.01400
C382        C  0.93584651  0.43156141  0.23886379     0.04300
C383        C  0.92093823  0.40504644  0.23207773    -0.11800
C384        C  0.92768101  0.37018039  0.22665032     0.23600
C385        C  0.94962188  0.36275954  0.22568065    -0.12400
C386        C  0.96449662  0.38968141  0.23092070     0.05000
C387        C  0.91160726  0.34149936  0.22489344     0.27400
C388        C  0.89934372  0.33383448  0.25530384    -0.13100
C389        C  0.88136014  0.31287744  0.25200220     0.05500
C390        C  0.87980562  0.28719091  0.22424417    -0.09000
C391        C  0.89265899  0.29502128  0.19281216     0.06300
C392        C  0.90706702  0.32379577  0.19274406    -0.13400
Br393      Br  0.95968875  0.31590847  0.21784573    -0.05500
Br394      Br  0.92646888  0.47845707  0.24911642     0.00200
Br395      Br  0.85724014  0.33831452  0.26866341     0.00600
Br396      Br  0.92078209  0.33946028  0.14889173    -0.03800
Br397      Br  0.99445439  0.37965756  0.22913319     0.00700
Br398      Br  0.89121619  0.41671158  0.22975531    -0.03100
Br399      Br  0.90587134  0.35363195  0.30163445    -0.04000
Br400      Br  0.89143855  0.26959060  0.14841828     0.00000
C401        C  0.20844027  0.34390361  0.10399796     0.01400
C402        C  0.20251134  0.36145689  0.13580633     0.04300
C403        C  0.19067335  0.34386601  0.16253150    -0.11800
C404        C  0.18374429  0.30930149  0.15692379     0.23600
C405        C  0.18848745  0.29251996  0.12427155    -0.12400
C406        C  0.20107294  0.30953186  0.09808638     0.05000
C407        C  0.17138574  0.29081375  0.18551241     0.27400
C408        C  0.18188138  0.27261643  0.21284013    -0.13100
C409        C  0.17079325  0.26035769  0.24367025     0.05500
C410        C  0.14764822  0.26021507  0.24471712    -0.09000
C411        C  0.13757638  0.27642443  0.21360067     0.06300
C412        C  0.14939234  0.29318693  0.18618126    -0.13400
Br413      Br  0.17716474  0.24657031  0.11528434    -0.05500
Br414      Br  0.21039543  0.40968464  0.14308319     0.00200
Br415      Br  0.19002598  0.25277404  0.28381898     0.00600
Br416      Br  0.13556713  0.31987041  0.14835264    -0.03800
Br417      Br  0.20688418  0.28656639  0.05303186     0.00700
Br418      Br  0.18381257  0.36711031  0.20698312    -0.03100
Br419      Br  0.21234137  0.26708175  0.20818423    -0.04000
Br420      Br  0.10756113  0.27428136  0.20377144     0.00000
C421        C  0.27601106  0.44113646  0.10497550     0.01400
C422        C  0.27731974  0.42363298  0.13857686     0.04300
C423        C  0.28929649  0.43790231  0.16691040    -0.11800
C424        C  0.30117878  0.46871433  0.16145021     0.23600
C425        C  0.29960063  0.48667794  0.12833198    -0.12400
C426        C  0.28704385  0.47301866  0.10029415     0.05000
C427        C  0.31770758  0.47870867  0.18831335     0.27400
C428        C  0.31379675  0.50320335  0.21523851    -0.13100
C429        C  0.33004563  0.01223150  0.23974816     0.05500
C430        C  0.34923330  0.49165242  0.24366081    -0.09000
C431        C  0.35054256  0.46279846  0.21826807     0.06300
C432        C  0.33698619  0.46101337  0.18825368    -0.13400
Br433      Br  0.31554393  0.52920819  0.12110989    -0.05500
Br434      Br  0.26368160  0.37894687  0.14553542     0.00200
Br435      Br  0.32445900  0.05500825  0.26532092     0.00600
Br436      Br  0.34355797  0.43076795  0.14796250    -0.03800
Br437      Br  0.28700227  0.49621379  0.05443153     0.00700
Br438      Br  0.28985901  0.41492004  0.21332429    -0.03100
Br439      Br  0.28636624  0.02510558  0.21618861    -0.04000
Br440      Br  0.36343545  0.41740734  0.22602744     0.00000
C441        C  0.27446734  0.43879050  0.94421507     0.01400
C442        C  0.27837530  0.47529058  0.94269623     0.04300
C443        C  0.29281945  0.48913563  0.91726544    -0.11800
C444        C  0.30097556  0.46769178  0.88985005     0.23600
C445        C  0.29413078  0.43259403  0.88782309    -0.12400
C446        C  0.28157539  0.41792162  0.91541553     0.05000
C447        C  0.31770379  0.48055602  0.86443818     0.27400
C448        C  0.31327409  0.50409632  0.83640934    -0.13100
C449        C  0.32932996  0.51361823  0.81155877     0.05500
C450        C  0.34848265  0.49291089  0.80783808    -0.09000
C451        C  0.35102210  0.46614832  0.83559564     0.06300
C452        C  0.33785886  0.46576361  0.86623984    -0.13400
Br453      Br  0.30202278  0.40431883  0.84716400    -0.05500
Br454      Br  0.26313806  0.50723805  0.97307876     0.00200
Br455      Br  0.32409687  0.05660735  0.78538062     0.00600
Br456      Br  0.34611632  0.44088632  0.90969042    -0.03800
Br457      Br  0.27271332  0.36979233  0.91173488     0.00700
Br458      Br  0.30236556  0.53686827  0.92147779    -0.03100
Br459      Br  0.28491581  0.52244911  0.83127718    -0.04000
Br460      Br  0.36527703  0.42152255  0.83167305     0.00000
C461        C  0.26911369  0.04043238  0.60633378     0.01400
C462        C  0.27054932  0.05781170  0.63957514     0.04300
C463        C  0.28308731  0.04385543  0.66743030    -0.11800
C464        C  0.29526828  0.01349271  0.66164724     0.23600
C465        C  0.29258296  0.99460497  0.62953186    -0.12400
C466        C  0.27910130  0.00762744  0.60222331     0.05000
C467        C  0.31328947  0.00570161  0.68640659     0.27400
C468        C  0.33141789  0.02643108  0.68394084    -0.13100
C469        C  0.34581894  0.02788729  0.71280621     0.05500
C470        C  0.34648285  0.00009734  0.73984565    -0.09000
C471        C  0.32883649  0.97572432  0.73820572     0.06300
C472        C  0.31176736  0.98086007  0.71406338    -0.13400
Br473      Br  0.30837178  0.45258266  0.62236688    -0.05500
Br474      Br  0.25561941  0.10127016  0.64684362     0.00200
Br475      Br  0.35792019  0.07446717  0.71594557     0.00600
Br476      Br  0.28602123  0.95379112  0.71846818    -0.03800
Br477      Br  0.27531520  0.98143281  0.55861038     0.00700
Br478      Br  0.28428494  0.06710374  0.71323986    -0.03100
Br479      Br  0.33531672  0.05542981  0.64130344    -0.04000
Br480      Br  0.32737005  0.93288291  0.76605578     0.00000
C481        C  0.45609639  0.32510483  0.76517962     0.01400
C482        C  0.43969237  0.32466300  0.79124100     0.04300
C483        C  0.42430422  0.35139682  0.79160782    -0.11800
C484        C  0.42491334  0.37859639  0.76578782     0.23600
C485        C  0.44091855  0.37877968  0.73933885    -0.12400
C486        C  0.45653250  0.35242535  0.73910191     0.05000
C487        C  0.40929103  0.40791162  0.76710315     0.27400
C488        C  0.39156360  0.40806286  0.74465121    -0.13100
C489        C  0.37833253  0.43789366  0.74209295     0.05500
C490        C  0.37949436  0.46545286  0.76887872    -0.09000
C491        C  0.39787424  0.46353889  0.79235953     0.06300
C492        C  0.41300293  0.43647882  0.78936846    -0.13400
Br493      Br  0.44139595  0.41563598  0.70346030    -0.05500
Br494      Br  0.43725809  0.28651962  0.82545772     0.00200
Br495      Br  0.36336113  0.43986533  0.69640950     0.00600
Br496      Br  0.43887700  0.43710835  0.81736095    -0.03800
Br497      Br  0.47895744  0.35540039  0.70369647     0.00700
Br498      Br  0.40214587  0.35052855  0.82734569    -0.03100
Br499      Br  0.38596382  0.36667886  0.71646128    -0.04000
Br500      Br  0.40225238  0.99329274  0.83347223     0.00000
C501        C  0.37823948  0.03145864  0.77369735     0.01400
C502        C  0.39478875  0.03551133  0.74669568     0.04300
C503        C  0.40927584  0.06364764  0.74733638    -0.11800
C504        C  0.40700625  0.09060855  0.77214017     0.23600
C505        C  0.39116839  0.08831096  0.79846434    -0.12400
C506        C  0.37803522  0.05824383  0.80144583     0.05000
C507        C  0.42243665  0.12032327  0.77181935     0.27400
C508        C  0.44152786  0.11728446  0.79112388    -0.13100
C509        C  0.45719387  0.14339844  0.78803985     0.05500
C510        C  0.45337716  0.17400352  0.76743324    -0.09000
C511        C  0.43379201  0.17784184  0.74957508     0.06300
C512        C  0.41869263  0.15059143  0.75078321    -0.13400
Br513      Br  0.38852954  0.12683859  0.83181328    -0.05500
Br514      Br  0.39729870  0.00659931  0.70443169     0.00200
Br515      Br  0.48446674  0.13578554  0.81010494     0.00600
Br516      Br  0.39305958  0.15430386  0.72301288    -0.03800
Br517      Br  0.36427623  0.05481616  0.84825757     0.00700
Br518      Br  0.43247539  0.06643770  0.71308346    -0.03100
Br519      Br  0.44622314  0.07686592  0.82151956    -0.04000
Br520      Br  0.42706246  0.22123090  0.72532246     0.00000
C521        C  0.72825922  0.07210163  0.89518527     0.01400
C522        C  0.71558175  0.04340743  0.90556869     0.04300
C523        C  0.70154632  0.02821652  0.88073034    -0.11800
C524        C  0.70106454  0.04016139  0.84463509     0.23600
C525        C  0.71509302  0.06703586  0.83363668    -0.12400
C526        C  0.72828344  0.08344756  0.85900961     0.05000
C527        C  0.68400714  0.02776948  0.81986522     0.27400
C528        C  0.68410762  0.99379674  0.80581242    -0.13100
C529        C  0.66727373  0.98198093  0.78363756     0.05500
C530        C  0.65044740  0.00520700  0.77255781    -0.09000
C531        C  0.64900610  0.03679480  0.79373686     0.06300
C532        C  0.66630825  0.04899441  0.81401557    -0.13400
Br533      Br  0.71537428  0.08282374  0.78422331    -0.05500
Br534      Br  0.71676171  0.02590857  0.95437331     0.00200
Br535      Br  0.66850734  0.43344584  0.77021592     0.00600
Br536      Br  0.66515873  0.09458649  0.83673246    -0.03800
Br537      Br  0.74617902  0.12193129  0.84440955     0.00700
Br538      Br  0.68172775  0.99304975  0.89705833    -0.03100
Br539      Br  0.70874878  0.96480210  0.81419240    -0.04000
Br540      Br  0.62272295  0.05774389  0.80933644     0.00000
C541        C  0.64758998  0.49405141  0.70180887     0.01400
C542        C  0.67033290  0.49056905  0.69939627     0.04300
C543        C  0.67995337  0.47343792  0.67000790    -0.11800
C544        C  0.66894045  0.46857414  0.63769660     0.23600
C545        C  0.64805848  0.48098138  0.63560279    -0.12400
C546        C  0.63708229  0.49211194  0.66715159     0.05000
C547        C  0.68023696  0.45333621  0.60557507     0.27400
C548        C  0.69539613  0.47331204  0.58654850    -0.13100
C549        C  0.70834540  0.45771769  0.55993697     0.05500
C550        C  0.70738793  0.42102025  0.55369399    -0.09000
C551        C  0.69123980  0.40159746  0.57160190     0.06300
C552        C  0.67706863  0.41824516  0.59540793    -0.13400
Br553      Br  0.63474576  0.48248676  0.58875161    -0.05500
Br554      Br  0.69023051  0.52006419  0.72435244     0.00200
Br555      Br  0.72594189  0.48807317  0.53066873     0.00600
Br556      Br  0.65220366  0.39325334  0.61088695    -0.03800
Br557      Br  0.60814188  0.50577266  0.65905222     0.00700
Br558      Br  0.70889007  0.45728742  0.67394755    -0.03100
Br559      Br  0.69784152  0.02238298  0.59705833    -0.04000
Br560      Br  0.68828958  0.35153131  0.56582381     0.00000
C561        C  0.61749609  0.02698833  0.73568506     0.01400
C562        C  0.59527973  0.02255314  0.74381230     0.04300
C563        C  0.58228315  0.05136845  0.75217009    -0.11800
C564        C  0.58866256  0.08546614  0.74349294     0.23600
C565        C  0.60880896  0.09057748  0.72827068    -0.12400
C566        C  0.62338340  0.06230775  0.72554883     0.05000
C567        C  0.57320565  0.11505325  0.74720566     0.27400
C568        C  0.55596966  0.11761794  0.72325323    -0.14700
C569        C  0.54024421  0.14333375  0.72816913     0.05500
C570        C  0.54205643  0.16815513  0.75618393    -0.09000
C571        C  0.55934108  0.16550651  0.78024429     0.06300
C572        C  0.57479700  0.13922393  0.77565161    -0.13400
Br573      Br  0.61649885  0.13726343  0.71253965    -0.05500
Br574      Br  0.57878220  0.98254137  0.73047346     0.00200
Br575      Br  0.51537448  0.14209234  0.69790463     0.00600
Br576      Br  0.59830593  0.13706496  0.80841213    -0.03800
Br577      Br  0.65109511  0.07478128  0.70838620     0.00700
Br578      Br  0.55507467  0.04393013  0.77521244    -0.03100
Br579      Br  0.55398756  0.08574668  0.68324385    -0.04000
Br580      Br  0.56248819  0.19799328  0.81952481     0.00000
C581        C  0.62347709  0.45927279  0.74822538     0.01400
C582        C  0.61407959  0.44960230  0.78251286     0.04300
C583        C  0.60144268  0.41886565  0.78622665    -0.11800
C584        C  0.59445880  0.40076904  0.75565400     0.23600
C585        C  0.60383351  0.40933149  0.72248187    -0.12400
C586        C  0.62068116  0.43332696  0.72091526     0.05000
C587        C  0.57797463  0.37235195  0.75838748     0.27400
C588        C  0.58324083  0.33708285  0.75098115    -0.13100
C589        C  0.56736574  0.31096689  0.75089739     0.05500
C590        C  0.54625122  0.31950728  0.75949217    -0.09000
C591        C  0.54123690  0.35401230  0.76927831     0.06300
C592        C  0.55684251  0.38037236  0.76827107    -0.13400
Br593      Br  0.59433530  0.38807472  0.67842839    -0.05500
Br594      Br  0.61754126  0.47532677  0.82620389     0.00200
Br595      Br  0.57458644  0.26309393  0.74040643     0.00600
Br596      Br  0.54876970  0.42727093  0.78100121    -0.03800
Br597      Br  0.64410778  0.41362485  0.69553916     0.00700
Br598      Br  0.59374711  0.40064532  0.83324299    -0.03100
Br599      Br  0.61238256  0.32404858  0.74272637    -0.04000
Br600      Br  0.51279341  0.36513018  0.78452645     0.00000
C601        C  0.85621692  0.24930691  0.75063566     0.01400
C602        C  0.86565643  0.24381046  0.78555898     0.04300
C603        C  0.85363656  0.22955727  0.81461606    -0.11800
C604        C  0.83216993  0.22086149  0.81006286     0.23600
C605        C  0.82195584  0.23156937  0.77852265    -0.12400
C606        C  0.83328382  0.24894360  0.75090351     0.05000
C607        C  0.81972682  0.20386709  0.83983767     0.27400
C608        C  0.81570956  0.16752006  0.83981656    -0.13100
C609        C  0.80491037  0.15144566  0.86870158     0.05500
C610        C  0.79609534  0.17197801  0.89642492    -0.09000
C611        C  0.79928789  0.20865318  0.89570535     0.06300
C612        C  0.81119269  0.22439107  0.86771615    -0.13400
Br613      Br  0.79170970  0.22427924  0.77438448    -0.05500
Br614      Br  0.89503573  0.25360257  0.79553556     0.00200
Br615      Br  0.80180004  0.10104506  0.86893705     0.00600
Br616      Br  0.81489894  0.27451430  0.86627676    -0.03800
Br617      Br  0.81565714  0.28093562  0.72349693     0.00700
Br618      Br  0.86690479  0.21876331  0.86020362    -0.03100
Br619      Br  0.82274663  0.13956536  0.79876534    -0.04000
Br620      Br  0.78828066  0.23761085  0.93376922     0.00000
C621        C  0.85512788  0.26231259  0.68125093     0.01400
C622        C  0.84032238  0.23657210  0.66796315     0.04300
C623        C  0.82518518  0.24528965  0.64111606    -0.11800
C624        C  0.82257448  0.28009405  0.62980903     0.23600
C625        C  0.83654711  0.30548040  0.64253389    -0.12400
C626        C  0.85431228  0.29570554  0.66295169     0.05000
C627        C  0.80706412  0.28998075  0.60117685     0.27400
C628        C  0.81454057  0.29727749  0.56609485    -0.13100
C629        C  0.80106505  0.31275804  0.54040460     0.05500
C630        C  0.77974470  0.31996055  0.54913931    -0.09000
C631        C  0.77175954  0.30975669  0.58312329     0.06300
C632        C  0.78545567  0.29535455  0.60930296    -0.13400
Br633      Br  0.83191943  0.35420570  0.63027502    -0.05500
Br634      Br  0.83889384  0.18925119  0.68578730     0.00200
Br635      Br  0.81197022  0.32411239  0.49314466     0.00600
Br636      Br  0.77475008  0.28467599  0.65671248    -0.03800
Br637      Br  0.87868421  0.32339136  0.65003042     0.00700
Br638      Br  0.80725342  0.20991515  0.62017337    -0.03100
Br639      Br  0.84359311  0.28696853  0.55369007    -0.04000
Br640      Br  0.74235422  0.31746412  0.59463156     0.00000
C641        C  0.15095107  0.26537075  0.80256928     0.01400
C642        C  0.14952264  0.24725480  0.83723573     0.04300
C643        C  0.16202553  0.25797799  0.86702954    -0.11800
C644        C  0.17414665  0.28863893  0.86545691     0.23600
C645        C  0.17528124  0.30754767  0.83326807    -0.12400
C646        C  0.16453686  0.29607581  0.80224198     0.05000
C647        C  0.18521366  0.30244956  0.89805957     0.27400
C648        C  0.17553548  0.32830365  0.91927358    -0.13100
C649        C  0.18684879  0.34495116  0.94703298     0.05500
C650        C  0.20849354  0.33668670  0.95345027    -0.09000
C651        C  0.21755315  0.30833617  0.93372750     0.06300
C652        C  0.20598306  0.29186070  0.90605117    -0.13400
Br653      Br  0.19222348  0.34996959  0.83226859    -0.05500
Br654      Br  0.12733018  0.21461586  0.85143017     0.00200
Br655      Br  0.17146363  0.37734824  0.97714328     0.00600
Br656      Br  0.21866431  0.25503869  0.87785158    -0.03800
Br657      Br  0.17116661  0.32295092  0.75953365     0.00700
Br658      Br  0.16148883  0.23243240  0.91229719    -0.03100
Br659      Br  0.14665544  0.34159319  0.90951019    -0.04000
Br660      Br  0.24563080  0.29043279  0.94339743     0.00000
C661        C  0.20291279  0.14322842  0.59636658     0.01400
C662        C  0.20002440  0.17961106  0.59067757     0.04300
C663        C  0.18892590  0.19979614  0.61608139    -0.11800
C664        C  0.18060923  0.18397319  0.64737742     0.23600
C665        C  0.18293175  0.14757443  0.65260840    -0.12400
C666        C  0.19377918  0.12715186  0.62703318     0.05000
C667        C  0.17034552  0.20583786  0.67570148     0.27400
C668        C  0.18242738  0.21884909  0.70402562    -0.13100
C669        C  0.17279006  0.23593467  0.73367303     0.05500
C670        C  0.15006414  0.24343879  0.73396900    -0.09000
C671        C  0.13862370  0.23161074  0.70225745     0.06300
C672        C  0.14870679  0.21286631  0.67439524    -0.13400
Br673      Br  0.17210591  0.12595689  0.69582815    -0.05500
Br674      Br  0.21063348  0.20210304  0.54749203     0.00200
Br675      Br  0.19260559  0.24063445  0.77341329     0.00600
Br676      Br  0.13306249  0.19690079  0.63282679    -0.03800
Br677      Br  0.19697867  0.07749928  0.63534356     0.00700
Br678      Br  0.18556331  0.24950519  0.60876714    -0.03100
Br679      Br  0.21285330  0.21103974  0.70181482    -0.04000
Br680      Br  0.10887397  0.24163265  0.69340495     0.00000
C681        C  0.12496656  0.29463346  0.75941902     0.01400
C682        C  0.12473425  0.31232115  0.72440647     0.04300
C683        C  0.11011888  0.33960331  0.71729513    -0.11800
C684        C  0.09853759  0.35469609  0.74516313     0.23600
C685        C  0.10249368  0.34454592  0.78057837    -0.12400
C686        C  0.11551889  0.31533640  0.78816526     0.05000
C687        C  0.08227216  0.38195271  0.73777458     0.27400
C688        C  0.08719758  0.41764246  0.74198950    -0.13100
C689        C  0.07109659  0.44299952  0.73951499     0.05500
C690        C  0.05003267  0.43278206  0.73288287    -0.09000
C691        C  0.04538031  0.39736560  0.72639714     0.06300
C692        C  0.06139246  0.37193533  0.72937316    -0.13400
Br693      Br  0.08798045  0.36974386  0.81875022    -0.05500
Br694      Br  0.14556520  0.30752493  0.68575137     0.00200
Br695      Br  0.07806660  0.49182407  0.74363188     0.00600
Br696      Br  0.05467691  0.32326495  0.72248529    -0.03800
Br697      Br  0.11619340  0.30424121  0.83924252     0.00700
Br698      Br  0.10613398  0.35815255  0.66907075    -0.03100
Br699      Br  0.11597362  0.43151974  0.75178536    -0.04000
Br700      Br  0.01717091  0.38377684  0.71258570     0.00000
C701        C  0.05047898  0.08024084  0.73440882     0.01400
C702        C  0.05793527  0.10200562  0.70582927     0.04300
C703        C  0.07204475  0.12978386  0.71294600    -0.11800
C704        C  0.07935733  0.13571693  0.74815274     0.23600
C705        C  0.07307715  0.11315222  0.77619149    -0.12400
C706        C  0.05916706  0.08521169  0.76948630     0.05000
C707        C  0.09324517  0.16624652  0.75638328     0.27400
C708        C  0.11497161  0.16163817  0.76104466    -0.13100
C709        C  0.12798736  0.18981359  0.77154741     0.05500
C710        C  0.12001734  0.22539664  0.77363262    -0.09000
C711        C  0.09698078  0.22770770  0.77353242     0.06300
C712        C  0.08419147  0.19860190  0.76417435    -0.13400
Br713      Br  0.08329921  0.12146280  0.82446584    -0.05500
Br714      Br  0.04946242  0.09480857  0.65645787     0.00200
Br715      Br  0.15640823  0.17669157  0.78528436     0.00600
Br716      Br  0.05346683  0.20206869  0.76142233    -0.03800
Br717      Br  0.05370553  0.05321138  0.80919639     0.00700
Br718      Br  0.08091316  0.16074366  0.67457807    -0.03100
Br719      Br  0.12665591  0.11557651  0.75284186    -0.04000
Br720      Br  0.08004311  0.26646117  0.78884212     0.00000
C721        C  0.96014594  0.08136241  0.70865079     0.01400
C722        C  0.93849147  0.07398292  0.71354032     0.04300
C723        C  0.92324758  0.10013419  0.70690151    -0.11800
C724        C  0.92962198  0.13440166  0.69708960     0.23600
C725        C  0.95132806  0.14135297  0.69116703    -0.12400
C726        C  0.96648427  0.11486211  0.69683420     0.05000
C727        C  0.91391455  0.16358711  0.69882937     0.27400
C728        C  0.90642088  0.18140163  0.66808752    -0.13100
C729        C  0.89274544  0.21090257  0.67181875     0.05500
C730        C  0.88301957  0.21882872  0.70622196    -0.09000
C731        C  0.88746341  0.19353881  0.73390832     0.06300
C732        C  0.90536684  0.17229264  0.73225197    -0.13400
Br733      Br  0.96066668  0.18719781  0.67623823    -0.05500
Br734      Br  0.92974698  0.02819453  0.72996809     0.00200
Br735      Br  0.88906208  0.23856643  0.62873372     0.00600
Br736      Br  0.91695886  0.15352563  0.77648309    -0.03800
Br737      Br  0.99620512  0.12509432  0.69082410     0.00700
Br738      Br  0.89352613  0.08914935  0.71180726    -0.03100
Br739      Br  0.91537628  0.16546212  0.62122418    -0.04000
Br740      Br  0.86589728  0.16853637  0.75926325     0.00000
C741        C  0.96006750  0.43050001  0.71756267     0.01400
C742        C  0.94489917  0.42929801  0.68958188     0.04300
C743        C  0.92936900  0.40272962  0.68928735    -0.11800
C744        C  0.92855608  0.37751552  0.71714671     0.23600
C745        C  0.94313695  0.37927429  0.74563793    -0.12400
C746        C  0.95892469  0.40524772  0.74581127     0.05000
C747        C  0.91337664  0.34760851  0.71609030     0.27400
C748        C  0.89364741  0.34952033  0.73327690    -0.13100
C749        C  0.88003005  0.31990055  0.73486454     0.05500
C750        C  0.88660498  0.28625003  0.72093897    -0.09000
C751        C  0.90867498  0.28475987  0.71052791     0.06300
C752        C  0.92042138  0.31536965  0.70349916    -0.13400
Br753      Br  0.94137971  0.34552015  0.78462263    -0.05500
Br754      Br  0.94428182  0.46501151  0.65251031     0.00200
Br755      Br  0.85360791  0.32818394  0.75914531     0.00600
Br756      Br  0.94737757  0.31298097  0.67853117    -0.03800
Br757      Br  0.97930502  0.40433628  0.78463924     0.00700
Br758      Br  0.90910789  0.40102767  0.65073493    -0.03100
Br759      Br  0.88553799  0.39379407  0.75420283    -0.04000
Br760      Br  0.92734540  0.24637157  0.72084987     0.00000
O761        O  0.02371131  0.97248424  0.75796162    -0.74300
O762        O  0.98078707  0.54205888  0.74605528    -0.74400
O763        O  0.98091331  0.97222985  0.74927159    -0.74400
O764        O  0.02313496  0.54249625  0.75617509    -0.74500
O765        O  0.02922738  0.54057238  0.69753149    -0.74400
O766        O  0.98531241  0.97035700  0.68992234    -0.74400
O767        O  0.98638444  0.54117598  0.68675214    -0.74400
O768        O  0.02791026  0.97071708  0.69834359    -0.74400
Ni769      Ni  0.00175038  0.00768638  0.75449397     1.25400
Ni770      Ni  0.00746154  0.50541177  0.69082731     1.25400
C771        C  0.03292275  0.96022498  0.72986299     0.87800
C772        C  0.97665671  0.55325898  0.71420457     0.87800
C773        C  0.97614373  0.95925108  0.71881040     0.87800
C774        C  0.03366019  0.55285619  0.72875585     0.88000
C775        C  0.13616429  0.75801526  0.76760986    -0.02400
C776        C  0.87077554  0.75393797  0.71427966    -0.02400
C777        C  0.63475721  0.99627193  0.73965024    -0.02400
O778        O  0.48026849  0.78481228  0.79326259    -0.74300
O779        O  0.52032731  0.70888141  0.78929572    -0.74400
O780        O  0.52312701  0.78014766  0.78999416    -0.74400
O781        O  0.47769760  0.71374086  0.79390934    -0.74500
O782        O  0.47631028  0.71296765  0.73398833    -0.74400
O783        O  0.52092074  0.78212231  0.73010229    -0.74400
O784        O  0.51926565  0.71125212  0.72953123    -0.74400
O785        O  0.47777283  0.78392213  0.73355776    -0.74400
Ni786      Ni  0.50043196  0.74691173  0.79373799     1.25400
Ni787      Ni  0.49850301  0.74762767  0.72967453     1.25400
C788        C  0.47218281  0.79660977  0.76389548     0.87800
C789        C  0.52641982  0.69748274  0.75854054     0.87800
C790        C  0.52937795  0.79236510  0.75960076     0.87800
C791        C  0.46979135  0.70181603  0.76479489     0.88000
C792        C  0.36319027  0.49756676  0.77264138    -0.02400
O793        O  0.23854373  0.84794557  0.06505230    -0.74300
O794        O  0.26996323  0.89332353  0.98877917    -0.74400
O795        O  0.27077719  0.89502278  0.06249550    -0.74400
O796        O  0.23825528  0.84502758  0.99260293    -0.74500
O797        O  0.21506351  0.88828901  0.99009513    -0.74400
O798        O  0.24737954  0.93864034  0.06162788    -0.74400
O799        O  0.24642805  0.93656840  0.98778934    -0.74400
O800        O  0.21501617  0.89134587  0.06309076    -0.74400
Ni801      Ni  0.25529721  0.86893414  0.02724118     1.25400
Ni802      Ni  0.23018997  0.91531480  0.02563881     1.25400
C803        C  0.22130810  0.86208641  0.07610542     0.87800
C804        C  0.26309163  0.92218538  0.97515576     0.87800
C805        C  0.26427632  0.92447616  0.07440758     0.87800
C806        C  0.22110130  0.85776047  0.97995917     0.88000
O807        O  0.01927974  0.96347860  0.28721702    -0.74300
O808        O  0.97670514  0.53353142  0.27774097    -0.74400
O809        O  0.97685452  0.96275087  0.27597856    -0.74400
O810        O  0.01944423  0.53418445  0.28810540    -0.74500
O811        O  0.02406852  0.53645882  0.22854750    -0.74400
O812        O  0.98291157  0.96429434  0.21678775    -0.74400
O813        O  0.98172159  0.53565443  0.21853038    -0.74400
O814        O  0.02564038  0.96648763  0.22873023    -0.74400
Ni815      Ni  0.99772130  0.99835984  0.28456202     1.25400
Ni816      Ni  0.00352832  0.00065014  0.22120391     1.25400
C817        C  0.03029413  0.95427646  0.26002790     0.87800
C818        C  0.97216501  0.54656740  0.24689684     0.87800
C819        C  0.97310126  0.95174068  0.24412454     0.87800
C820        C  0.02873674  0.54679354  0.26010344     0.88000
C821        C  0.13326721  0.74955873  0.27909391    -0.02400
C822        C  0.86651242  0.75134788  0.23027190    -0.02400
C823        C  0.63840263  0.00102935  0.22097252    -0.02400
C824        C  0.36611588  0.99882508  0.27548758    -0.02400
O825        O  0.48380738  0.78307017  0.29133949    -0.74300
O826        O  0.52588001  0.71169518  0.27805852    -0.74400
O827        O  0.52694897  0.78373807  0.28334171    -0.74400
O828        O  0.48318021  0.71221142  0.28503750    -0.74500
O829        O  0.47941684  0.71799576  0.22581123    -0.74400
O830        O  0.52341469  0.78806677  0.22383355    -0.74400
O831        O  0.52224567  0.71611921  0.21852115    -0.74400
O832        O  0.48064569  0.78885081  0.23198700    -0.74400
Ni833      Ni  0.50517055  0.74759719  0.28653436     1.25400
Ni834      Ni  0.50139730  0.75298281  0.22296388     1.25400
C835        C  0.47501702  0.79745578  0.26395600     0.87800
C836        C  0.53031160  0.70106189  0.24630349     0.87800
C837        C  0.53213334  0.79812724  0.25312899     0.87800
C838        C  0.47403504  0.70328802  0.25559576     0.88000
O839        O  0.73332118  0.62130074  0.93237303    -0.74300
O840        O  0.76238344  0.67275756  0.00561171    -0.74400
O841        O  0.76526342  0.66874980  0.93285007    -0.74400
O842        O  0.73041049  0.62529779  0.00531490    -0.74500
O843        O  0.75334106  0.58132883  0.00974235    -0.74400
O844        O  0.78895114  0.62608100  0.93922773    -0.74400
O845        O  0.78545569  0.62892238  0.01153887    -0.74400
O846        O  0.75694928  0.57815480  0.93719347    -0.74400
Ni847      Ni  0.74701026  0.64855979  0.96884067     1.25400
Ni848      Ni  0.77201264  0.60209931  0.97461622     1.25400
C849        C  0.74029266  0.59126919  0.92284994     0.87800
C850        C  0.77874172  0.65923829  0.02054866     0.87800
C851        C  0.78295914  0.65469866  0.92421194     0.87800
C852        C  0.73595580  0.59593404  0.01928570     0.88000
O853        O  0.26571772  0.58802403  0.56463440    -0.74300
O854        O  0.23650387  0.63864472  0.49019038    -0.74400
O855        O  0.23440711  0.63632042  0.56226452    -0.74400
O856        O  0.26848504  0.59035367  0.49179429    -0.74500
O857        O  0.24496455  0.54702844  0.48849672    -0.74400
O858        O  0.21019410  0.59414110  0.55878799    -0.74400
O859        O  0.21297950  0.59549540  0.48631598    -0.74400
O860        O  0.24182202  0.54520550  0.56177892    -0.74400
Ni861      Ni  0.25215979  0.61470144  0.52723501     1.25400
Ni862      Ni  0.22667603  0.56881268  0.52367656     1.25400
C863        C  0.25839553  0.55863250  0.57592202     0.87800
C864        C  0.21942375  0.62604258  0.47695697     0.87800
C865        C  0.21645053  0.62355331  0.57140430     0.87800
C866        C  0.26258670  0.56102905  0.47880359     0.88000
O867        O  0.77309602  0.87154112  0.51437486    -0.74300
O868        O  0.74061719  0.92556346  0.44709151    -0.74400
O869        O  0.74014933  0.91755931  0.51911552    -0.74400
O870        O  0.77362154  0.87868456  0.44199539    -0.74500
O871        O  0.75122417  0.83399675  0.43818474    -0.74400
O872        O  0.71666770  0.87528628  0.51171662    -0.74400
O873        O  0.71875041  0.88084235  0.43970346    -0.74400
O874        O  0.74962135  0.82817362  0.51099641    -0.74400
Ni875      Ni  0.75771832  0.89985331  0.48075538     1.25400
Ni876      Ni  0.73328717  0.85296862  0.47505692     1.25400
C877        C  0.76681897  0.84095681  0.52367488     0.87800
C878        C  0.72398084  0.91259345  0.43281990     0.87800
C879        C  0.72223723  0.90367519  0.52712964     0.87800
C880        C  0.76820913  0.84943357  0.42787909     0.88000
C881        C  0.27661896  0.54342754  0.45233756     0.01400
C882        C  0.29747104  0.53397340  0.46211383     0.04300
C883        C  0.31138575  0.51962352  0.43641254    -0.11800
C884        C  0.30542285  0.51812654  0.39987937     0.23600
C885        C  0.28450815  0.52728853  0.39010717    -0.12400
C886        C  0.26995811  0.53869411  0.41647630     0.05000
C887        C  0.32183489  0.51201553  0.37130751     0.27400
C888        C  0.33626217  0.53857032  0.36281685    -0.13100
C889        C  0.35055762  0.53542916  0.33341010     0.05500
C890        C  0.35130550  0.50377398  0.31138917    -0.09000
C891        C  0.33532800  0.47783039  0.32067597     0.06300
C892        C  0.32181949  0.48147327  0.35098841    -0.13400
Br893      Br  0.27624775  0.52682944  0.34010896    -0.05500
Br894      Br  0.30759003  0.54265081  0.51018617     0.00200
Br895      Br  0.36369604  0.58035153  0.32253181     0.00600
Br896      Br  0.30323795  0.44381797  0.36640391    -0.03800
Br897      Br  0.24142732  0.55080676  0.40275404     0.00700
Br898      Br  0.33916507  0.50381160  0.45070686    -0.03100
Br899      Br  0.33476401  0.58135716  0.39108382    -0.04000
Br900      Br  0.33127366  0.93498270  0.29417733     0.00000
C901        C  0.38273511  0.96676343  0.27836055     0.01400
C902        C  0.39915591  0.96303874  0.25101817     0.04300
C903        C  0.41394390  0.93521581  0.25196042    -0.11800
C904        C  0.41140962  0.90735187  0.27613044     0.23600
C905        C  0.39558554  0.90937162  0.30248242    -0.12400
C906        C  0.38337905  0.94024685  0.30673690     0.05000
C907        C  0.42656864  0.87715090  0.27529127     0.27400
C908        C  0.42416953  0.84993425  0.25016903    -0.13100
C909        C  0.43967051  0.82351674  0.24718844     0.05500
C910        C  0.45794842  0.82408905  0.26915654    -0.09000
C911        C  0.45967825  0.85028821  0.29581315     0.06300
C912        C  0.44419619  0.87681471  0.29846592    -0.13400
Br913      Br  0.39079031  0.86881293  0.33295864    -0.05500
Br914      Br  0.40085689  0.99106084  0.20751500     0.00200
Br915      Br  0.43494042  0.78533033  0.21429784     0.00600
Br916      Br  0.44741031  0.91381885  0.33310791    -0.03800
Br917      Br  0.37255912  0.94466884  0.35552215     0.00700
Br918      Br  0.43749051  0.93362436  0.21838461    -0.03100
Br919      Br  0.39968523  0.84870963  0.21946967    -0.04000
Br920      Br  0.48342868  0.85116645  0.32840438     0.00000
C921        C  0.38126070  0.53211726  0.26947170     0.01400
C922        C  0.39942783  0.53687040  0.29290100     0.04300
C923        C  0.41461389  0.56353974  0.28696160    -0.11800
C924        C  0.41102593  0.59019055  0.26175686     0.23600
C925        C  0.39318354  0.58781883  0.23943452    -0.12400
C926        C  0.37958348  0.55802776  0.24062206     0.05000
C927        C  0.42632284  0.62047998  0.25875413     0.27400
C928        C  0.42633469  0.64728090  0.28474387    -0.13100
C929        C  0.44154189  0.67448034  0.28333965     0.05500
C930        C  0.45718369  0.67535019  0.25593023    -0.09000
C931        C  0.45672048  0.64896723  0.22920163     0.06300
C932        C  0.44156954  0.62165088  0.23092024    -0.13400
Br933      Br  0.38776600  0.62628986  0.20650657    -0.05500
Br934      Br  0.40316588  0.51197483  0.33777593     0.00200
Br935      Br  0.43995329  0.71164906  0.31816694     0.00600
Br936      Br  0.44212524  0.58472947  0.19576849    -0.03800
Br937      Br  0.36221966  0.55398641  0.19792842     0.00700
Br938      Br  0.44070676  0.56446019  0.31432032    -0.03100
Br939      Br  0.40550560  0.64657480  0.32277000    -0.04000
Br940      Br  0.47733670  0.64867701  0.19067855     0.00000
C941        C  0.71039413  0.93449013  0.40847698     0.01400
C942        C  0.68837665  0.92740649  0.40552017     0.04300
C943        C  0.67624079  0.94383772  0.37845236    -0.11800
C944        C  0.68535784  0.96983875  0.35636581     0.23600
C945        C  0.70616804  0.98113081  0.36331908    -0.12400
C946        C  0.71899044  0.96266337  0.38796076     0.05000
C947        C  0.67454307  0.98173178  0.32271887     0.27400
C948        C  0.68263032  0.97093781  0.28964846    -0.13100
C949        C  0.67364981  0.98298032  0.25708132     0.05500
C950        C  0.65357810  0.00151866  0.25652523    -0.09000
C951        C  0.64885280  0.01844394  0.29062674     0.06300
C952        C  0.65829963  0.00657272  0.32320489    -0.13400
Br953      Br  0.71740002  0.02081988  0.33692501    -0.05500
Br954      Br  0.67403273  0.89707136  0.43964176     0.00200
Br955      Br  0.69210772  0.97473569  0.21625914     0.00600
Br956      Br  0.64992396  0.02548971  0.36938461    -0.03800
Br957      Br  0.74853116  0.97540288  0.39057587     0.00700
Br958      Br  0.64727455  0.92987515  0.37080073    -0.03100
Br959      Br  0.70579216  0.93719165  0.28932311    -0.04000
Br960      Br  0.63517248  0.56361938  0.29638130     0.00000
C961        C  0.65402466  0.51116930  0.18806828     0.01400
C962        C  0.65898008  0.48879654  0.15775484     0.04300
C963        C  0.67168686  0.50116972  0.12859247    -0.11800
C964        C  0.68153626  0.53401486  0.12971768     0.23600
C965        C  0.67896988  0.55476198  0.16017778    -0.12400
C966        C  0.66567042  0.54388343  0.18883518     0.05000
C967        C  0.69545604  0.54675835  0.09956990     0.27400
C968        C  0.71767807  0.54519586  0.10295740    -0.13100
C969        C  0.73088876  0.56175833  0.07727702     0.05500
C970        C  0.72203084  0.57858068  0.04670222    -0.09000
C971        C  0.69972214  0.57872532  0.04259067     0.06300
C972        C  0.68657831  0.56350171  0.06921385    -0.13400
Br973      Br  0.69321879  0.59985926  0.16118949    -0.05500
Br974      Br  0.65420051  0.93826801  0.15746867     0.00200
Br975      Br  0.76099277  0.56376312  0.08624927     0.00600
Br976      Br  0.65624820  0.56635204  0.06448390    -0.03800
Br977      Br  0.66293829  0.57776809  0.22628724     0.00700
Br978      Br  0.67684504  0.97172990  0.08710289    -0.03100
Br979      Br  0.72997126  0.52100593  0.14363258    -0.04000
Br980      Br  0.68674945  0.59865459  0.00002494     0.00000
C981        C  0.61882784  0.52829893  0.22257372     0.01400
C982        C  0.61303745  0.55342369  0.19425335     0.04300
C983        C  0.59498868  0.57517214  0.19789831    -0.11800
C984        C  0.58503419  0.57909795  0.23119447     0.23600
C985        C  0.58917152  0.55423453  0.25814756    -0.12400
C986        C  0.60359407  0.52644286  0.25181441     0.05000
C987        C  0.57091958  0.61022117  0.23721289     0.27400
C988        C  0.57898424  0.64438004  0.23132082    -0.13100
C989        C  0.56511416  0.67319368  0.22966798     0.05500
C990        C  0.54416309  0.66984277  0.24214434    -0.09000
C991        C  0.53649449  0.63618346  0.25124720     0.06300
C992        C  0.54914612  0.60633946  0.24521511    -0.13400
Br993      Br  0.57678816  0.56031704  0.30553519    -0.05500
Br994      Br  0.62660788  0.56135380  0.14783395     0.00200
Br995      Br  0.57432271  0.71574484  0.20668623     0.00600
Br996      Br  0.53600360  0.56075700  0.24448700    -0.03800
Br997      Br  0.60249583  0.48947450  0.28756929     0.00700
Br998      Br  0.58281373  0.60009149  0.15692904    -0.03100
Br999      Br  0.60904777  0.65209243  0.22546395    -0.04000
Br1000     Br  0.50856973  0.63052706  0.27137047     0.00000
C1001       C  0.62678680  0.96341328  0.21793853     0.01400
C1002       C  0.60996171  0.95656260  0.19260623     0.04300
C1003       C  0.59586975  0.92772409  0.19735927    -0.11800
C1004       C  0.59567924  0.90831238  0.22976801     0.23600
C1005       C  0.61226150  0.91423899  0.25405968    -0.12400
C1006       C  0.62932619  0.93621551  0.24448550     0.05000
C1007       C  0.57920065  0.88029505  0.23719619     0.27400
C1008       C  0.55742509  0.88879998  0.24012667    -0.13100
C1009       C  0.54204085  0.86206836  0.24487164     0.05500
C1010       C  0.54825917  0.82703824  0.25131837    -0.09000
C1011       C  0.57007233  0.81948031  0.25271227     0.06300
C1012       C  0.58520559  0.84488382  0.24223154    -0.13400
Br1013     Br  0.61244172  0.89199058  0.30085047    -0.05500
Br1014     Br  0.60648026  0.98254974  0.14857379     0.00200
Br1015     Br  0.51238224  0.87369351  0.24363948     0.00600
Br1016     Br  0.61380175  0.83007382  0.23194791    -0.03800
Br1017     Br  0.65538625  0.91097230  0.24957453     0.00700
Br1018     Br  0.57718013  0.91365393  0.15888537    -0.03100
Br1019     Br  0.54861591  0.93715257  0.23845211    -0.04000
Br1020     Br  0.57942536  0.77550368  0.27222742     0.00000
C1021       C  0.78176731  0.83308024  0.39939939     0.01400
C1022       C  0.78998938  0.85357788  0.37078652     0.04300
C1023       C  0.80271689  0.83828219  0.34384673    -0.11800
C1024       C  0.80803315  0.80239090  0.34548354     0.23600
C1025       C  0.79937863  0.78163726  0.37346812    -0.12400
C1026       C  0.78634413  0.79674805  0.40020790     0.05000
C1027       C  0.82230250  0.78608858  0.31766760     0.27400
C1028       C  0.81410726  0.77512526  0.28464087    -0.13100
C1029       C  0.82714749  0.75809383  0.25905233     0.05500
C1030       C  0.84993490  0.75668815  0.26317007    -0.09000
C1031       C  0.85700288  0.76256701  0.29958308     0.06300
C1032       C  0.84350654  0.77814361  0.32569612    -0.13400
Br1033     Br  0.80498888  0.73198989  0.37443490    -0.05500
Br1034     Br  0.78295512  0.90257697  0.36687856     0.00200
Br1035     Br  0.81124965  0.72790244  0.22765674     0.00600
Br1036     Br  0.85454443  0.79229397  0.37187240    -0.03800
Br1037     Br  0.77556742  0.76727610  0.43855947     0.00700
Br1038     Br  0.81180481  0.86675571  0.30383285    -0.03100
Br1039     Br  0.78421311  0.78212034  0.27544017    -0.04000
Br1040     Br  0.88482915  0.74999759  0.31633303     0.00000
C1041       C  0.79003936  0.67861250  0.04891954     0.01400
C1042       C  0.81123725  0.68902211  0.04359865     0.04300
C1043       C  0.82248453  0.70519245  0.07162618    -0.11800
C1044       C  0.81291229  0.70973126  0.10567490     0.23600
C1045       C  0.79158592  0.69969396  0.11072709    -0.12400
C1046       C  0.78003333  0.68504733  0.08214715     0.05000
C1047       C  0.82614416  0.72141600  0.13663687     0.27400
C1048       C  0.83980859  0.69741445  0.15296667    -0.13100
C1049       C  0.85572938  0.70904348  0.17626378     0.05500
C1050       C  0.85428718  0.74257220  0.19359710    -0.09000
C1051       C  0.84047577  0.76725108  0.17563070     0.06300
C1052       C  0.82731017  0.75672834  0.14658796    -0.13400
Br1053     Br  0.77845697  0.70364924  0.15724906    -0.05500
Br1054     Br  0.82490739  0.68100567  0.99786429     0.00200
Br1055     Br  0.88210979  0.68581579  0.16608954     0.00600
Br1056     Br  0.81003883  0.79016377  0.12073143    -0.03800
Br1057     Br  0.75077021  0.67190769  0.08912512     0.00700
Br1058     Br  0.85136822  0.72003272  0.06389350    -0.03100
Br1059     Br  0.83823977  0.64844529  0.14033098    -0.04000
Br1060     Br  0.83829578  0.81552574  0.18907595     0.00000
C1061       C  0.14734497  0.73695373  0.31304488     0.01400
C1062       C  0.15707153  0.70246557  0.31173018     0.04300
C1063       C  0.16551424  0.68600144  0.34243841    -0.11800
C1064       C  0.16922795  0.70497373  0.37355899     0.23600
C1065       C  0.16179502  0.73940906  0.37579075    -0.12400
C1066       C  0.14936549  0.75443236  0.34767035     0.05000
C1067       C  0.18207734  0.68843857  0.40285432     0.27400
C1068       C  0.17214869  0.67026256  0.43140050    -0.13100
C1069       C  0.18433346  0.65036015  0.45594238     0.05500
C1070       C  0.20658393  0.64758959  0.45145659    -0.09000
C1071       C  0.21647815  0.66649577  0.42321748     0.06300
C1072       C  0.20429586  0.68709753  0.39941693    -0.13400
Br1073     Br  0.16816606  0.76502369  0.41919101    -0.05500
Br1074     Br  0.16290669  0.67712905  0.26807054     0.00200
Br1075     Br  0.17034508  0.62835638  0.49653884     0.00600
Br1076     Br  0.21797661  0.71289758  0.36111543    -0.03800
Br1077     Br  0.13357316  0.79515238  0.36347973     0.00700
Br1078     Br  0.17266383  0.63659069  0.34207724    -0.03100
Br1079     Br  0.14171540  0.67190008  0.43605402    -0.04000
Br1080     Br  0.24660111  0.66260135  0.41521833     0.00000
C1081       C  0.04881190  0.92987421  0.26541150     0.01400
C1082       C  0.05830812  0.91227078  0.23578526     0.04300
C1083       C  0.07525731  0.88886933  0.24146913    -0.11800
C1084       C  0.08242454  0.88136152  0.27647208     0.23600
C1085       C  0.07425662  0.90009755  0.30564098    -0.12400
C1086       C  0.05762105  0.92422787  0.30049080     0.05000
C1087       C  0.09520650  0.84915891  0.28306032     0.27400
C1088       C  0.08462191  0.81742704  0.28714103    -0.13100
C1089       C  0.09567860  0.78536018  0.28480790     0.05500
C1090       C  0.11890020  0.78412051  0.28550975    -0.09000
C1091       C  0.12902114  0.81835126  0.28580117     0.06300
C1092       C  0.11725616  0.84976525  0.28278452    -0.13400
Br1093     Br  0.08571569  0.89122496  0.35305277    -0.05500
Br1094     Br  0.04780956  0.91696168  0.18707897     0.00200
Br1095     Br  0.07599430  0.74873358  0.27105215     0.00600
Br1096     Br  0.13110619  0.89476523  0.27822383    -0.03800
Br1097     Br  0.04762947  0.94836077  0.34296519     0.00700
Br1098     Br  0.08861186  0.86594093  0.20124603    -0.03100
Br1099     Br  0.05386322  0.81904455  0.29244702    -0.04000
Br1100     Br  0.15918969  0.82541915  0.29126008     0.00000
C1101       C  0.04488925  0.57420738  0.26334321     0.01400
C1102       C  0.04055256  0.60775649  0.24941275     0.04300
C1103       C  0.05638670  0.63346609  0.24911086    -0.11800
C1104       C  0.07650920  0.62602947  0.26363303     0.23600
C1105       C  0.08102338  0.59220810  0.27691995    -0.12400
C1106       C  0.06529697  0.56616352  0.27625797     0.05000
C1107       C  0.09230083  0.65453984  0.26712745     0.27400
C1108       C  0.10410838  0.66584191  0.23737162    -0.13100
C1109       C  0.11780831  0.69512652  0.23965981     0.05500
C1110       C  0.11886272  0.71560822  0.27263846    -0.09000
C1111       C  0.10718363  0.70118984  0.30319449     0.06300
C1112       C  0.09451874  0.67108983  0.30015161    -0.13400
Br1113     Br  0.10875884  0.58178176  0.29597952    -0.05500
Br1114     Br  0.01275848  0.61856890  0.23083321     0.00200
Br1115     Br  0.13574610  0.70011610  0.19705237     0.00600
Br1116     Br  0.07821651  0.65354472  0.34098914    -0.03800
Br1117     Br  0.07216414  0.51908767  0.29077083     0.00700
Br1118     Br  0.05046626  0.67864327  0.22813044    -0.03100
Br1119     Br  0.10150166  0.63915360  0.19332572    -0.04000
Br1120     Br  0.10362956  0.72485378  0.34875498     0.00000
C1121       C  0.88217870  0.71942867  0.24024837     0.01400
C1122       C  0.90485762  0.72130613  0.23568683     0.04300
C1123       C  0.91712447  0.69102867  0.23039097    -0.11800
C1124       C  0.90910988  0.65805999  0.23947744     0.23600
C1125       C  0.88804066  0.65542822  0.25126481    -0.12400
C1126       C  0.87448747  0.68521062  0.25091196     0.05000
C1127       C  0.92404725  0.62770458  0.24198182     0.27400
C1128       C  0.92563622  0.60285183  0.21422607    -0.13100
C1129       C  0.94134764  0.57653803  0.21546537     0.05500
C1130       C  0.95574695  0.57477898  0.24464516    -0.09000
C1131       C  0.95397923  0.59984919  0.27252775     0.06300
C1132       C  0.93799087  0.62554307  0.27143497    -0.13400
Br1133     Br  0.87782045  0.60999409  0.26660131    -0.05500
Br1134     Br  0.92214409  0.75912807  0.25217867     0.00200
Br1135     Br  0.94241986  0.54264187  0.17716985     0.00600
Br1136     Br  0.93507803  0.65833550  0.31052814    -0.03800
Br1137     Br  0.84612163  0.67657700  0.26746895     0.00700
Br1138     Br  0.94559845  0.69484256  0.21124152    -0.03100
Br1139     Br  0.90616118  0.60446497  0.17448204    -0.04000
Br1140     Br  0.97427124  0.60156850  0.31139776     0.00000
C1141       C  0.95742630  0.92376161  0.23853184     0.01400
C1142       C  0.93563657  0.93133792  0.23931682     0.04300
C1143       C  0.92075801  0.90481421  0.23241885    -0.11800
C1144       C  0.92754455  0.87001544  0.22673424     0.23600
C1145       C  0.94948967  0.86267940  0.22558243    -0.12400
C1146       C  0.96433366  0.88963133  0.23088083     0.05000
C1147       C  0.91151438  0.84129540  0.22491559     0.27400
C1148       C  0.89932470  0.83344511  0.25535828    -0.13100
C1149       C  0.88133918  0.81251650  0.25202627     0.05500
C1150       C  0.87975560  0.78695628  0.22415308    -0.09000
C1151       C  0.89255701  0.79493606  0.19269651     0.06300
C1152       C  0.90693411  0.82374460  0.19269646    -0.13400
Br1153     Br  0.95959504  0.81589660  0.21743034    -0.05500
Br1154     Br  0.92620434  0.97811863  0.24995942     0.00200
Br1155     Br  0.85725579  0.83805071  0.26868118     0.00600
Br1156     Br  0.92054175  0.83967440  0.14884540    -0.03800
Br1157     Br  0.99429904  0.87974622  0.22874746     0.00700
Br1158     Br  0.89101611  0.91637513  0.23028372    -0.03100
Br1159     Br  0.90593629  0.85297046  0.30177586    -0.04000
Br1160     Br  0.89129168  0.76971934  0.14816984     0.00000
C1161       C  0.20821208  0.84421604  0.10385448     0.01400
C1162       C  0.20221219  0.86188579  0.13556335     0.04300
C1163       C  0.19042437  0.84432635  0.16237467    -0.11800
C1164       C  0.18357426  0.80969763  0.15692095     0.23600
C1165       C  0.18833155  0.79282340  0.12432731    -0.12400
C1166       C  0.20089718  0.80978669  0.09808050     0.05000
C1167       C  0.17126532  0.79125284  0.18559740     0.27400
C1168       C  0.18180714  0.77316476  0.21295318    -0.13100
C1169       C  0.17075773  0.76092506  0.24383025     0.05500
C1170       C  0.14761644  0.76068449  0.24490921    -0.09000
C1171       C  0.13749822  0.77681491  0.21379515     0.06300
C1172       C  0.14927010  0.79356356  0.18631611    -0.13400
Br1173     Br  0.17704566  0.74681729  0.11549923    -0.05500
Br1174     Br  0.20989736  0.91023935  0.14258811     0.00200
Br1175     Br  0.19001284  0.75346909  0.28397622     0.00600
Br1176     Br  0.13537797  0.82010961  0.14845599    -0.03800
Br1177     Br  0.20672966  0.78667346  0.05311311     0.00700
Br1178     Br  0.18352609  0.86769417  0.20674411    -0.03100
Br1179     Br  0.21226883  0.76772719  0.20825451    -0.04000
Br1180     Br  0.10748324  0.77449622  0.20401289     0.00000
C1181       C  0.27615415  0.94108077  0.10456609     0.01400
C1182       C  0.27714930  0.92402652  0.13843497     0.04300
C1183       C  0.28917271  0.93834883  0.16669068    -0.11800
C1184       C  0.30136376  0.96878494  0.16093415     0.23600
C1185       C  0.30013929  0.98626501  0.12749891    -0.12400
C1186       C  0.28762241  0.97248123  0.09947509     0.05000
C1187       C  0.31788414  0.97873898  0.18783997     0.27400
C1188       C  0.31401213  0.00338504  0.21463197    -0.13100
C1189       C  0.32984469  0.51207465  0.24031215     0.05500
C1190       C  0.34940397  0.99174597  0.24321285    -0.09000
C1191       C  0.35069205  0.96280355  0.21791154     0.06300
C1192       C  0.33711512  0.96090294  0.18791895    -0.13400
Br1193     Br  0.31651492  0.02827682  0.11985632    -0.05500
Br1194     Br  0.26309873  0.87975935  0.14580972     0.00200
Br1195     Br  0.32423417  0.55480387  0.26595684     0.00600
Br1196     Br  0.34358564  0.93033739  0.14782651    -0.03800
Br1197     Br  0.28832125  0.99462227  0.05307394     0.00700
Br1198     Br  0.28939548  0.91590977  0.21338922    -0.03100
Br1199     Br  0.28608107  0.52465432  0.21707231    -0.04000
Br1200     Br  0.36363838  0.91747438  0.22575692     0.00000
C1201       C  0.27445863  0.93874975  0.94409635     0.01400
C1202       C  0.27837452  0.97525372  0.94260470     0.04300
C1203       C  0.29282779  0.98910298  0.91718922    -0.11800
C1204       C  0.30100183  0.96766236  0.88978582     0.23600
C1205       C  0.29417731  0.93255493  0.88776064    -0.12400
C1206       C  0.28160090  0.91788019  0.91532080     0.05000
C1207       C  0.31772029  0.98054855  0.86436771     0.27400
C1208       C  0.31326448  0.00403833  0.83630694    -0.13100
C1209       C  0.32930518  0.01355836  0.81142766     0.05500
C1210       C  0.34847762  0.99289666  0.80773395    -0.09000
C1211       C  0.35104876  0.96618371  0.83553449     0.06300
C1212       C  0.33788869  0.96580805  0.86618359    -0.13400
Br1213     Br  0.30212261  0.90426383  0.84714300    -0.05500
Br1214     Br  0.26316022  0.00720624  0.97304148     0.00200
Br1215     Br  0.32416795  0.55672975  0.78559723     0.00600
Br1216     Br  0.34616969  0.94100720  0.90966708    -0.03800
Br1217     Br  0.27276579  0.86973866  0.91161798     0.00700
Br1218     Br  0.30235846  0.03684439  0.92139326    -0.03100
Br1219     Br  0.28489046  0.02232450  0.83117771    -0.04000
Br1220     Br  0.36535702  0.92159720  0.83168390     0.00000
C1221       C  0.26909566  0.54093207  0.60655986     0.01400
C1222       C  0.27060891  0.55833688  0.63977670     0.04300
C1223       C  0.28316260  0.54434778  0.66759644    -0.11800
C1224       C  0.29529486  0.51393331  0.66179059     0.23600
C1225       C  0.29255964  0.49505824  0.62967945    -0.12400
C1226       C  0.27904714  0.50809999  0.60242545     0.05000
C1227       C  0.31330992  0.50604102  0.68653422     0.27400
C1228       C  0.33146388  0.52670914  0.68410118    -0.13100
C1229       C  0.34586628  0.52806582  0.71296974     0.05500
C1230       C  0.34650548  0.50021925  0.73995443    -0.09000
C1231       C  0.32883285  0.47590450  0.73826457     0.06300
C1232       C  0.31176582  0.48114407  0.71413728    -0.13400
Br1233     Br  0.30840706  0.95212681  0.62230919    -0.05500
Br1234     Br  0.25576528  0.60187537  0.64705672     0.00200
Br1235     Br  0.35798365  0.57462451  0.71621127     0.00600
Br1236     Br  0.28598968  0.45414892  0.71849420    -0.03800
Br1237     Br  0.27516886  0.48188782  0.55884620     0.00700
Br1238     Br  0.28444783  0.56762328  0.71338439    -0.03100
Br1239     Br  0.33539112  0.55578223  0.64152198    -0.04000
Br1240     Br  0.32731783  0.43302655  0.76604627     0.00000
C1241       C  0.45604376  0.82510121  0.76474796     0.01400
C1242       C  0.43975814  0.82477235  0.79102575     0.04300
C1243       C  0.42442820  0.85158369  0.79156567    -0.11800
C1244       C  0.42493326  0.87868157  0.76563242     0.23600
C1245       C  0.44079671  0.87872753  0.73893827    -0.12400
C1246       C  0.45639068  0.85234601  0.73858307     0.05000
C1247       C  0.40930573  0.90797078  0.76699684     0.27400
C1248       C  0.39152339  0.90801710  0.74467824    -0.13100
C1249       C  0.37830807  0.93784781  0.74205373     0.05500
C1250       C  0.37948861  0.96545625  0.76877888    -0.09000
C1251       C  0.39789391  0.96361072  0.79220462     0.06300
C1252       C  0.41304954  0.93660152  0.78916121    -0.13400
Br1253     Br  0.44110544  0.91542844  0.70288360    -0.05500
Br1254     Br  0.43737903  0.78665953  0.82529514     0.00200
Br1255     Br  0.36337161  0.93974382  0.69633443     0.00600
Br1256     Br  0.43899703  0.93739468  0.81694393    -0.03800
Br1257     Br  0.47866696  0.85519538  0.70289591     0.00700
Br1258     Br  0.40250389  0.85097459  0.82772431    -0.03100
Br1259     Br  0.38581702  0.86649307  0.71676818    -0.04000
Br1260     Br  0.40223187  0.49321087  0.83363201     0.00000
C1261       C  0.37826940  0.53145373  0.77385906     0.01400
C1262       C  0.39481931  0.53551601  0.74686290     0.04300
C1263       C  0.40929263  0.56366636  0.74750531    -0.11800
C1264       C  0.40698391  0.59065544  0.77226522     0.23600
C1265       C  0.39115159  0.58833844  0.79859705    -0.12400
C1266       C  0.37805717  0.55823112  0.80161375     0.05000
C1267       C  0.42237676  0.62041337  0.77188443     0.27400
C1268       C  0.44146445  0.61746502  0.79120767    -0.13100
C1269       C  0.45713865  0.64354175  0.78796019     0.05500
C1270       C  0.45332559  0.67404396  0.76719058    -0.09000
C1271       C  0.43373803  0.67781341  0.74932759     0.06300
C1272       C  0.41863223  0.65058112  0.75069424    -0.13400
Br1273     Br  0.38845652  0.62689835  0.83189020    -0.05500
Br1274     Br  0.39732698  0.50664572  0.70457116     0.00200
Br1275     Br  0.48442250  0.63599416  0.81001201     0.00600
Br1276     Br  0.39298984  0.65418545  0.72293732    -0.03800
Br1277     Br  0.36434085  0.55475072  0.84846077     0.00700
Br1278     Br  0.43251732  0.56644681  0.71329836    -0.03100
Br1279     Br  0.44614526  0.57721951  0.82185319    -0.04000
Br1280     Br  0.42701746  0.72107952  0.72483192     0.00000
C1281       C  0.72848349  0.57129906  0.89546126     0.01400
C1282       C  0.71561481  0.54292784  0.90610832     0.04300
C1283       C  0.70149514  0.52775085  0.88139007    -0.11800
C1284       C  0.70108345  0.53942739  0.84519823     0.23600
C1285       C  0.71526916  0.56599454  0.83398694    -0.12400
C1286       C  0.72860524  0.58230749  0.85919097     0.05000
C1287       C  0.68395216  0.52716710  0.82050311     0.27400
C1288       C  0.68392726  0.49321518  0.80642446    -0.13100
C1289       C  0.66713300  0.48167755  0.78399792     0.05500
C1290       C  0.65043340  0.50512416  0.77279017    -0.09000
C1291       C  0.64908740  0.53672204  0.79402027     0.06300
C1292       C  0.66637082  0.54861650  0.81456103    -0.13400
Br1293     Br  0.71552219  0.58165735  0.78454416    -0.05500
Br1294     Br  0.71667073  0.52586840  0.95508312     0.00200
Br1295     Br  0.66871877  0.93369336  0.77003619     0.00600
Br1296     Br  0.66538059  0.59410366  0.83755362    -0.03800
Br1297     Br  0.74684745  0.62021535  0.84423318     0.00700
Br1298     Br  0.68145590  0.49305587  0.89800165    -0.03100
Br1299     Br  0.70833974  0.46380890  0.81525363    -0.04000
Br1300     Br  0.62291689  0.55832382  0.80918886     0.00000
C1301       C  0.64755634  0.99387043  0.70174690     0.01400
C1302       C  0.67028196  0.99017527  0.69941355     0.04300
C1303       C  0.67983889  0.97270561  0.67022409    -0.11800
C1304       C  0.66890829  0.96812660  0.63780004     0.23600
C1305       C  0.64808164  0.98078677  0.63557377    -0.12400
C1306       C  0.63706451  0.99189146  0.66709043     0.05000
C1307       C  0.68027771  0.95301246  0.60571361     0.27400
C1308       C  0.69557575  0.97301230  0.58706050    -0.13100
C1309       C  0.70862332  0.95753200  0.56052117     0.05500
C1310       C  0.70752176  0.92092255  0.55379982    -0.09000
C1311       C  0.69122756  0.90147886  0.57136264     0.06300
C1312       C  0.67707275  0.91801481  0.59529471    -0.13400
Br1313     Br  0.63490574  0.98266492  0.58863412    -0.05500
Br1314     Br  0.69026270  0.02008403  0.72367596     0.00200
Br1315     Br  0.72664924  0.98801570  0.53216547     0.00600
Br1316     Br  0.65224683  0.89296033  0.61089297    -0.03800
Br1317     Br  0.60807453  0.00528736  0.65902494     0.00700
Br1318     Br  0.70856779  0.95572912  0.67464372    -0.03100
Br1319     Br  0.69759184  0.52277497  0.59607219    -0.04000
Br1320     Br  0.68803137  0.85152083  0.56495254     0.00000
C1321       C  0.61751879  0.52705818  0.73580951     0.01400
C1322       C  0.59529914  0.52254894  0.74384820     0.04300
C1323       C  0.58227769  0.55131014  0.75225950    -0.11800
C1324       C  0.58861913  0.58543846  0.74361375     0.23600
C1325       C  0.60877705  0.59062568  0.72844005    -0.12400
C1326       C  0.62338360  0.56239572  0.72570698     0.05000
C1327       C  0.57311615  0.61497319  0.74726533     0.27400
C1328       C  0.55588921  0.61744642  0.72327683    -0.14700
C1329       C  0.54016912  0.64319988  0.72805103     0.05500
C1330       C  0.54199634  0.66817416  0.75591180    -0.09000
C1331       C  0.55927559  0.66564130  0.77998754     0.06300
C1332       C  0.57468838  0.63925871  0.77561614    -0.13400
Br1333     Br  0.61646814  0.63737200  0.71291365    -0.05500
Br1334     Br  0.57883761  0.48259154  0.73011909     0.00200
Br1335     Br  0.51529191  0.64183070  0.69781653     0.00600
Br1336     Br  0.59807633  0.63709265  0.80861510    -0.03800
Br1337     Br  0.65112113  0.57494832  0.70870742     0.00700
Br1338     Br  0.55507855  0.54372376  0.77526601    -0.03100
Br1339     Br  0.55390454  0.58539890  0.68341675    -0.04000
Br1340     Br  0.56249780  0.69848983  0.81893604     0.00000
C1341       C  0.62349139  0.95918177  0.74825852     0.01400
C1342       C  0.61423305  0.94940248  0.78263067     0.04300
C1343       C  0.60142463  0.91883361  0.78628923    -0.11800
C1344       C  0.59431939  0.90090122  0.75568144     0.23600
C1345       C  0.60364255  0.90950426  0.72248136    -0.12400
C1346       C  0.62055158  0.93336061  0.72088728     0.05000
C1347       C  0.57784484  0.87246907  0.75836996     0.27400
C1348       C  0.58312658  0.83724826  0.75076794    -0.13100
C1349       C  0.56725865  0.81113138  0.75043370     0.05500
C1350       C  0.54613328  0.81960878  0.75900230    -0.09000
C1351       C  0.54109092  0.85406513  0.76894255     0.06300
C1352       C  0.55669953  0.88043033  0.76821140    -0.13400
Br1353     Br  0.59399854  0.88846753  0.67840799    -0.05500
Br1354     Br  0.61838725  0.97445413  0.82659363     0.00200
Br1355     Br  0.57449677  0.76335087  0.73955223     0.00600
Br1356     Br  0.54862135  0.92723290  0.78129086    -0.03800
Br1357     Br  0.64392769  0.91331209  0.69567659     0.00700
Br1358     Br  0.59368400  0.90057188  0.83326872    -0.03100
Br1359     Br  0.61228476  0.82428168  0.74257516    -0.04000
Br1360     Br  0.51259051  0.86512119  0.78393605     0.00000
C1361       C  0.85663661  0.74865092  0.75009460     0.01400
C1362       C  0.86605004  0.74305741  0.78502986     0.04300
C1363       C  0.85404020  0.72859645  0.81399211    -0.11800
C1364       C  0.83259860  0.71978742  0.80936324     0.23600
C1365       C  0.82240314  0.73045544  0.77778750    -0.12400
C1366       C  0.83370902  0.74803655  0.75027310     0.05000
C1367       C  0.82012769  0.70290491  0.83918088     0.27400
C1368       C  0.81627276  0.66650862  0.83951826    -0.13100
C1369       C  0.80540795  0.65060073  0.86843548     0.05500
C1370       C  0.79639554  0.67130939  0.89584123    -0.09000
C1371       C  0.79946784  0.70801269  0.89478479     0.06300
C1372       C  0.81142641  0.72360028  0.86677317    -0.13400
Br1373     Br  0.79219545  0.72285947  0.77347066    -0.05500
Br1374     Br  0.89536859  0.75311267  0.79519932     0.00200
Br1375     Br  0.80250113  0.60016552  0.86914912     0.00600
Br1376     Br  0.81503286  0.77373792  0.86494912    -0.03800
Br1377     Br  0.81602002  0.78006944  0.72306344     0.00700
Br1378     Br  0.86728252  0.71773326  0.85958446    -0.03100
Br1379     Br  0.82368694  0.63818797  0.79894117    -0.04000
Br1380     Br  0.78823211  0.73724893  0.93243048     0.00000
C1381       C  0.85563121  0.76203268  0.68070884     0.01400
C1382       C  0.84078753  0.73644306  0.66726096     0.04300
C1383       C  0.82550096  0.74548098  0.64074839    -0.11800
C1384       C  0.82297740  0.78036842  0.62962210     0.23600
C1385       C  0.83710537  0.80554543  0.64230685    -0.12400
C1386       C  0.85487821  0.79550817  0.66257808     0.05000
C1387       C  0.80743410  0.79051139  0.60110702     0.27400
C1388       C  0.81485217  0.79771392  0.56596018    -0.13100
C1389       C  0.80132972  0.81308680  0.54026735     0.05500
C1390       C  0.78004161  0.82041540  0.54910019    -0.09000
C1391       C  0.77214000  0.81056145  0.58324028     0.06300
C1392       C  0.78585856  0.79611369  0.60936531    -0.13400
Br1393     Br  0.83268829  0.85435200  0.63018257    -0.05500
Br1394     Br  0.83955191  0.68888090  0.68437845     0.00200
Br1395     Br  0.81212313  0.82414815  0.49286072     0.00600
Br1396     Br  0.77521097  0.78564418  0.65684995    -0.03800
Br1397     Br  0.87936134  0.82288513  0.64953666     0.00700
Br1398     Br  0.80713662  0.71047608  0.62022287    -0.03100
Br1399     Br  0.84389540  0.78744914  0.55344294    -0.04000
Br1400     Br  0.74283054  0.81891473  0.59502852     0.00000
C1401       C  0.15057602  0.76597583  0.80223910     0.01400
C1402       C  0.14929218  0.74773451  0.83685190     0.04300
C1403       C  0.16180089  0.75851687  0.86661310    -0.11800
C1404       C  0.17379372  0.78931671  0.86507342     0.23600
C1405       C  0.17475773  0.80837451  0.83296572    -0.12400
C1406       C  0.16400237  0.79688072  0.80196329     0.05000
C1407       C  0.18490429  0.80310060  0.89764147     0.27400
C1408       C  0.17525898  0.82896111  0.91888636    -0.13100
C1409       C  0.18659152  0.84550525  0.94669816     0.05500
C1410       C  0.20821919  0.83711292  0.95314685    -0.09000
C1411       C  0.21724799  0.80879587  0.93333236     0.06300
C1412       C  0.20566887  0.79245259  0.90558516    -0.13400
Br1413     Br  0.19151062  0.85100831  0.83202835    -0.05500
Br1414     Br  0.12729018  0.71473151  0.85104309     0.00200
Br1415     Br  0.17125633  0.87793945  0.97682533     0.00600
Br1416     Br  0.21834692  0.75576948  0.87718601    -0.03800
Br1417     Br  0.17046926  0.82398006  0.75932174     0.00700
Br1418     Br  0.16145180  0.73282980  0.91180233    -0.03100
Br1419     Br  0.14640617  0.84241434  0.90901870    -0.04000
Br1420     Br  0.24529871  0.79075523  0.94296320     0.00000
C1421       C  0.20286646  0.64388924  0.59641029     0.01400
C1422       C  0.19989114  0.68021820  0.59048843     0.04300
C1423       C  0.18872496  0.70047752  0.61574654    -0.11800
C1424       C  0.18045443  0.68478603  0.64714810     0.23600
C1425       C  0.18289999  0.64844320  0.65263607    -0.12400
C1426       C  0.19378629  0.62793876  0.62718482     0.05000
C1427       C  0.17013651  0.70673441  0.67534494     0.27400
C1428       C  0.18218916  0.71996718  0.70359221    -0.13100
C1429       C  0.17250307  0.73697649  0.73323884     0.05500
C1430       C  0.14973881  0.74416808  0.73360164    -0.09000
C1431       C  0.13833250  0.73222686  0.70190468     0.06300
C1432       C  0.14847257  0.71355463  0.67405024    -0.13400
Br1433     Br  0.17221271  0.62702693  0.69605228    -0.05500
Br1434     Br  0.21048242  0.70252221  0.54719101     0.00200
Br1435     Br  0.19234797  0.74198618  0.77289258     0.00600
Br1436     Br  0.13287106  0.69740292  0.63251678    -0.03800
Br1437     Br  0.19711243  0.57835585  0.63580098     0.00700
Br1438     Br  0.18521273  0.75011155  0.60809332    -0.03100
Br1439     Br  0.21264997  0.71254883  0.70128935    -0.04000
Br1440     Br  0.10855206  0.74200915  0.69307153     0.00000
C1441       C  0.12446498  0.79503673  0.75925782     0.01400
C1442       C  0.12418874  0.81289749  0.72433208     0.04300
C1443       C  0.10960402  0.84027471  0.71743913    -0.11800
C1444       C  0.09809219  0.85528572  0.74543693     0.23600
C1445       C  0.10204200  0.84488222  0.78078343    -0.12400
C1446       C  0.11497564  0.81550702  0.78815462     0.05000
C1447       C  0.08185222  0.88263229  0.73821847     0.27400
C1448       C  0.08679948  0.91828708  0.74267181    -0.13100
C1449       C  0.07073247  0.94370382  0.74016410     0.05500
C1450       C  0.04968412  0.93357402  0.73326581    -0.09000
C1451       C  0.04502067  0.89821204  0.72653236     0.06300
C1452       C  0.06099338  0.87272720  0.72952443    -0.13400
Br1453     Br  0.08760892  0.86992156  0.81914570    -0.05500
Br1454     Br  0.14493268  0.80823648  0.68551883     0.00200
Br1455     Br  0.07773810  0.99249618  0.74449404     0.00600
Br1456     Br  0.05424122  0.82415355  0.72213113    -0.03800
Br1457     Br  0.11531436  0.80363967  0.83907125     0.00700
Br1458     Br  0.10557437  0.85910107  0.66932968    -0.03100
Br1459     Br  0.11556618  0.93204294  0.75271284    -0.04000
Br1460     Br  0.01685162  0.88477478  0.71231547     0.00000
C1461       C  0.05088543  0.57952318  0.73427138     0.01400
C1462       C  0.05823621  0.60145551  0.70575154     0.04300
C1463       C  0.07222099  0.62939117  0.71294131    -0.11800
C1464       C  0.07954360  0.63529132  0.74815514     0.23600
C1465       C  0.07339108  0.61254151  0.77611786    -0.12400
C1466       C  0.05959498  0.58445914  0.76933676     0.05000
C1467       C  0.09327422  0.66601264  0.75645749     0.27400
C1468       C  0.11503384  0.66176000  0.76098570    -0.13100
C1469       C  0.12792517  0.69018328  0.77125293     0.05500
C1470       C  0.11977439  0.72567454  0.77324625    -0.09000
C1471       C  0.09671331  0.72767238  0.77309166     0.06300
C1472       C  0.08406033  0.69825878  0.76416535    -0.13400
Br1473     Br  0.08359047  0.62083051  0.82440398    -0.05500
Br1474     Br  0.04977720  0.59427820  0.65636979     0.00200
Br1475     Br  0.15646308  0.67749828  0.78474845     0.00600
Br1476     Br  0.05329377  0.70112171  0.76177377    -0.03800
Br1477     Br  0.05430563  0.55223041  0.80891222     0.00700
Br1478     Br  0.08086042  0.66065326  0.67467803    -0.03100
Br1479     Br  0.12693182  0.61581239  0.75296684    -0.04000
Br1480     Br  0.07953013  0.76671284  0.78679931     0.00000
C1481       C  0.96067001  0.58095118  0.70864149     0.01400
C1482       C  0.93897714  0.57358465  0.71299350     0.04300
C1483       C  0.92380349  0.59984136  0.70631070    -0.11800
C1484       C  0.93027326  0.63417339  0.69693138     0.23600
C1485       C  0.95202777  0.64111889  0.69155243    -0.12400
C1486       C  0.96712196  0.61455016  0.69733211     0.05000
C1487       C  0.91456815  0.66337980  0.69855860     0.27400
C1488       C  0.90722414  0.68131022  0.66777479    -0.13100
C1489       C  0.89344166  0.71070055  0.67140757     0.05500
C1490       C  0.88355311  0.71848329  0.70570492    -0.09000
C1491       C  0.88788075  0.69309168  0.73333560     0.06300
C1492       C  0.90581852  0.67190803  0.73188074    -0.13400
Br1493     Br  0.96150583  0.68703560  0.67715427    -0.05500
Br1494     Br  0.93008590  0.52766769  0.72877693     0.00200
Br1495     Br  0.88975740  0.73834329  0.62832977     0.00600
Br1496     Br  0.91711080  0.65282918  0.77619822    -0.03800
Br1497     Br  0.99689539  0.62476907  0.69215509     0.00700
Br1498     Br  0.89404391  0.58889863  0.71054527    -0.03100
Br1499     Br  0.91653367  0.66567604  0.62099969    -0.04000
Br1500     Br  0.86616091  0.66787832  0.75805620     0.00000
C1501       C  0.95987909  0.93092779  0.71779493     0.01400
C1502       C  0.94468168  0.92967620  0.68987170     0.04300
C1503       C  0.92927631  0.90291758  0.68950082    -0.11800
C1504       C  0.92861791  0.87756573  0.71724202     0.23600
C1505       C  0.94319153  0.87943218  0.74573748    -0.12400
C1506       C  0.95886652  0.90558623  0.74596494     0.05000
C1507       C  0.91357289  0.84748028  0.71610876     0.27400
C1508       C  0.89376736  0.84924242  0.73304324    -0.13100
C1509       C  0.88025238  0.81949919  0.73453483     0.05500
C1510       C  0.88697385  0.78590310  0.72067914    -0.09000
C1511       C  0.90909358  0.78456766  0.71054717     0.06300
C1512       C  0.92079512  0.81527211  0.70370461    -0.13400
Br1513     Br  0.94155772  0.84562137  0.78468236    -0.05500
Br1514     Br  0.94384755  0.96559651  0.65302369     0.00200
Br1515     Br  0.85376510  0.82752738  0.75868385     0.00600
Br1516     Br  0.94789360  0.81309834  0.67915969    -0.03800
Br1517     Br  0.97927864  0.90481581  0.78474545     0.00700
Br1518     Br  0.90895815  0.90119387  0.65104004    -0.03100
Br1519     Br  0.88541817  0.89347814  0.75379510    -0.04000
Br1520     Br  0.92778339  0.74618993  0.72083259     0.00000
loop_ 
_geom_bond_atom_site_label_1 
_geom_bond_atom_site_label_2 
_geom_bond_distance 
_geom_bond_site_symmetry_2 
_ccdc_geom_bond_type 
O1           Ni9   1.937       .  S
O1           C11   1.286       .  A
O2         Ni769   1.926   1_655  S
O2           C12   1.283       .  A
O3           Ni9   1.901   1_655  S
O3           C13   1.276       .  A
O4         Ni769   1.900       .  S
O4           C14   1.275       .  A
O5          Ni10   1.941       .  S
O5           C14   1.286       .  A
O6         Ni770   1.940   1_655  S
O6           C13   1.287       .  A
O7          Ni10   1.914   1_655  S
O7           C12   1.279       .  A
O8         Ni770   1.904       .  S
O8           C11   1.276       .  A
Ni9         O762   1.927   1_455  S
Ni9         O764   1.901       .  S
Ni9        Ni770   2.382       .  S
Ni10        O766   1.940   1_445  S
Ni10        O768   1.904   1_545  S
Ni10       Ni769   2.382       .  S
C11         C690   1.475       .  S
C12         C721   1.477       .  S
C13         C741   1.494       .  S
C14         C701   1.507       .  S
C15         C641   1.609       .  S
C15         C670   1.618       .  S
C15         C681   1.625       .  S
C15         C710   1.624       .  S
C16         C601   1.611       .  S
C16         C621   1.601       .  S
C16         C730   1.611       .  S
C16         C750   1.614       .  S
C17         C541   1.626       .  S
C17         C581   1.616       .  S
C17        C1290   1.616       .  S
C17        C1321   1.608       .  S
O18         Ni26   1.930       .  S
O18          C28   1.285       .  A
O19         Ni26   1.930       .  S
O19          C29   1.284       .  A
O20         Ni26   1.921       .  S
O20          C30   1.280       .  A
O21         Ni26   1.917       .  S
O21          C31   1.280       .  A
O22         Ni27   1.935       .  S
O22          C31   1.285       .  A
O23         Ni27   1.935       .  S
O23          C30   1.284       .  A
O24         Ni27   1.911       .  S
O24          C29   1.279       .  A
O25         Ni27   1.914       .  S
O25          C28   1.279       .  A
Ni26        Ni27   2.383       .  S
C28         C481   1.493       .  S
C29         C570   1.495       .  S
C30         C590   1.485       .  S
C31         C510   1.489       .  S
C32         C470   1.612   1_565  S
C32         C501   1.610   1_565  S
C32        C1210   1.611       .  S
C32        C1250   1.609       .  S
O33         Ni41   1.926       .  S
O33          C43   1.283       .  A
O34         Ni41   1.934   1_556  S
O34          C44   1.286       .  A
O35         Ni41   1.922       .  S
O35          C45   1.281       .  A
O36         Ni41   1.917   1_556  S
O36          C46   1.277       .  A
O37         Ni42   1.937   1_556  S
O37          C46   1.287       .  A
O38         Ni42   1.946       .  S
O38          C45   1.287       .  A
O39         Ni42   1.915   1_556  S
O39          C44   1.278       .  A
O40         Ni42   1.915       .  S
O40          C43   1.279       .  A
Ni41        Ni42   2.380       .  S
C43         C401   1.482       .  S
C44         C441   1.494       .  S
C45         C421   1.496       .  S
C46         C650   1.515       .  S
O47         Ni55   1.909   1_455  S
O47          C57   1.277       .  A
O48        Ni815   1.912   1_545  S
O48          C58   1.279       .  A
O49         Ni55   1.924       .  S
O49          C59   1.282       .  A
O50        Ni815   1.931   1_445  S
O50          C60   1.284       .  A
O51        Ni816   1.897       .  S
O51          C60   1.275       .  A
O52         Ni56   1.914   1_655  S
O52          C59   1.279       .  A
O53        Ni816   1.935   1_655  S
O53          C58   1.286       .  A
O54         Ni56   1.932       .  S
O54          C57   1.284       .  A
Ni55        O808   1.912       .  S
Ni55        O810   1.931   1_655  S
Ni55        Ni56   2.382   1_655  S
Ni56        O811   1.898       .  S
Ni56        O813   1.935   1_455  S
C57         C321   1.510       .  S
C58         C370   1.498       .  S
C59         C381   1.474       .  S
C60         C341   1.469       .  S
C61         C301   1.616       .  S
C61         C330   1.622       .  S
C61         C350   1.605       .  S
C61         C410   1.613       .  S
C62         C270   1.621       .  S
C62         C290   1.606       .  S
C62         C361   1.613       .  S
C62         C390   1.613       .  S
C63         C190   1.634       .  S
C63         C241   1.620       .  S
C63         C961   1.603       .  S
C63         C981   1.621       .  S
C64         C141   1.617       .  S
C64         C430   1.623       .  S
C64         C890   1.623       .  S
C64         C921   1.618       .  S
O65         Ni73   1.922       .  S
O65          C75   1.281       .  A
O66         Ni73   1.923       .  S
O66          C76   1.281       .  A
O67         Ni73   1.953       .  S
O67          C77   1.288       .  A
O68         Ni73   1.941       .  S
O68          C78   1.287       .  A
O69         Ni74   1.930       .  S
O69          C78   1.282       .  A
O70         Ni74   1.933       .  S
O70          C77   1.283       .  A
O71         Ni74   1.937       .  S
O71          C76   1.285       .  A
O72         Ni74   1.928       .  S
O72          C75   1.284       .  A
Ni73        Ni74   2.382       .  S
C75         C150   1.496       .  S
C76         C230   1.489       .  S
C77         C250   1.505       .  S
C78         C170   1.508       .  S
O79         Ni87   1.924       .  S
O79          C89   1.282       .  A
O80         Ni87   1.922   1_554  S
O80          C90   1.281       .  A
O81         Ni87   1.921       .  S
O81          C91   1.281       .  A
O82         Ni87   1.924   1_554  S
O82          C92   1.283       .  A
O83         Ni88   1.924   1_554  S
O83          C92   1.282       .  A
O84         Ni88   1.920       .  S
O84          C91   1.282       .  A
O85         Ni88   1.920   1_554  S
O85          C90   1.281       .  A
O86         Ni88   1.925       .  S
O86          C89   1.281       .  A
Ni87        Ni88   2.386       .  S
C89         C521   1.481       .  S
C90         C281   1.479       .  S
C91         C610   1.489       .  S
C92         C210   1.495       .  S
O93        Ni101   1.921       .  S
O93         C103   1.282       .  A
O94        Ni101   1.923       .  S
O94         C104   1.283       .  A
O95        Ni101   1.909       .  S
O95         C105   1.279       .  A
O96        Ni101   1.917       .  S
O96         C106   1.280       .  A
O97        Ni102   1.935       .  S
O97         C106   1.285       .  A
O98        Ni102   1.933       .  S
O98         C105   1.285       .  A
O99        Ni102   1.923       .  S
O99         C104   1.282       .  A
O100       Ni102   1.929       .  S
O100        C103   1.282       .  A
Ni101      Ni102   2.386       .  S
C103        C461   1.484       .  S
C104        C310   1.492       .  S
C105        C661   1.487       .  S
C106        C121   1.487       .  S
O107       Ni115   1.914       .  S
O107        C117   1.280       .  A
O108       Ni115   1.920       .  S
O108        C118   1.280       .  A
O109       Ni115   1.930       .  S
O109        C119   1.283       .  A
O110       Ni115   1.935       .  S
O110        C120   1.286       .  A
O111       Ni116   1.922       .  S
O111        C120   1.281       .  A
O112       Ni116   1.923       .  S
O112        C119   1.282       .  A
O113       Ni116   1.920       .  S
O113        C118   1.282       .  A
O114       Ni116   1.932       .  S
O114        C117   1.283       .  A
Ni115      Ni116   2.377       .  S
C117        C630   1.483       .  S
C118        C181   1.499       .  S
C119        C550   1.511       .  S
C120        C261   1.499       .  S
C121        C122   1.414       .  A
C121        C126   1.411       .  A
C122        C123   1.410       .  A
C122       Br134   1.930       .  S
C123        C124   1.411       .  A
C123       Br138   1.930       .  S
C124        C127   1.501       .  S
C124        C125   1.414       .  A
C125        C126   1.413       .  A
C125       Br133   1.931       .  S
C126       Br137   1.930       .  S
C127        C128   1.398       .  A
C127        C132   1.396   1_545  A
C128        C129   1.421       .  A
C128       Br139   1.953       .  S
C129        C130   1.467       .  A
C129       Br135   1.947       .  S
C130        C824   1.623   1_545  S
C130        C131   1.454   1_545  A
C131        C132   1.419       .  A
C131       Br900   1.932       .  S
C132       Br136   1.940       .  S
Br140       C891   1.932       .  S
C141        C142   1.458       .  A
C141        C146   1.457       .  A
C142        C143   1.416       .  A
C142       Br154   1.935       .  S
C143        C144   1.397       .  A
C143       Br158   1.940       .  S
C144        C147   1.501       .  S
C144        C145   1.400       .  A
C145        C146   1.420       .  A
C145       Br153   1.936       .  S
C146       Br157   1.944       .  S
C147        C148   1.412       .  A
C147        C152   1.409       .  A
C148        C149   1.412       .  A
C148       Br159   1.925       .  S
C149        C150   1.416       .  A
C149       Br155   1.935       .  S
C150        C151   1.419       .  A
C151        C152   1.413       .  A
C151       Br160   1.931       .  S
C152       Br156   1.931       .  S
C161        C824   1.618   1_545  S
C161        C162   1.455       .  A
C161        C166   1.458       .  A
C162        C163   1.416       .  A
C162       Br174   1.928       .  S
C163        C164   1.397       .  A
C163       Br178   1.939       .  S
C164        C167   1.512       .  S
C164        C165   1.405       .  A
C165        C166   1.427       .  A
C165       Br173   1.937       .  S
C166       Br177   1.938       .  S
C167        C168   1.414       .  A
C167        C172   1.412       .  A
C168        C169   1.417       .  A
C168       Br179   1.928       .  S
C169        C170   1.417       .  A
C169       Br175   1.932       .  S
C170        C171   1.422       .  A
C171        C172   1.418       .  A
C171       Br180   1.932       .  S
C172       Br176   1.931       .  S
C181        C182   1.422       .  A
C181        C186   1.422       .  A
C182        C183   1.410       .  A
C182       Br194   1.935       .  S
C183        C184   1.406       .  A
C183       Br198   1.929       .  S
C184        C187   1.494       .  S
C184        C185   1.409       .  A
C185        C186   1.410       .  A
C185       Br193   1.934       .  S
C186       Br197   1.931       .  S
C187        C188   1.395       .  A
C187        C192   1.398       .  A
C188        C189   1.411       .  A
C188       Br199   1.951       .  S
C189        C190   1.452       .  A
C189       Br195   1.938       .  S
C190        C191   1.457       .  A
C191        C192   1.422       .  A
C191       Br960   1.944       .  S
C192       Br196   1.939       .  S
Br200       C951   1.944       .  S
C201        C823   1.603       .  S
C201        C202   1.453   1_545  A
C201        C206   1.452       .  A
C202        C203   1.425   1_565  A
C202       Br974   1.939       .  S
C203        C204   1.403       .  A
C203       Br978   1.935   1_545  S
C204        C207   1.501       .  S
C204        C205   1.396       .  A
C205        C206   1.414       .  A
C205       Br213   1.946       .  S
C206       Br217   1.916       .  S
C207        C208   1.411       .  A
C207        C212   1.410       .  A
C208        C209   1.412       .  A
C208       Br219   1.930       .  S
C209        C210   1.417       .  A
C209       Br215   1.933       .  S
C210        C211   1.418       .  A
C211        C212   1.412       .  A
C211       Br220   1.934   1_554  S
C212       Br216   1.927       .  S
Br214       C962   1.939       .  S
Br218       C963   1.936       .  S
C221        C823   1.622       .  S
C221        C222   1.466       .  A
C221        C226   1.450       .  A
C222        C223   1.418       .  A
C222       Br234   1.945       .  S
C223        C224   1.395       .  A
C223       Br238   1.949       .  S
C224        C227   1.505       .  S
C224        C225   1.400       .  A
C225        C226   1.420       .  A
C225       Br233   1.940       .  S
C226       Br237   1.933   1_545  S
C227        C228   1.417       .  A
C227        C232   1.414       .  A
C228        C229   1.409       .  A
C228       Br239   1.933       .  S
C229        C230   1.407       .  A
C229       Br235   1.921       .  S
C230        C231   1.414       .  A
C231        C232   1.412       .  A
C231       Br240   1.925       .  S
C232       Br236   1.931       .  S
C241        C242   1.447       .  A
C241        C246   1.437       .  A
C242        C243   1.427       .  A
C242       Br254   1.920       .  S
C243        C244   1.409       .  A
C243       Br258   1.936       .  S
C244        C247   1.517       .  S
C244        C245   1.404       .  A
C245        C246   1.410       .  A
C245       Br253   1.929       .  S
C246       Br257   1.917       .  S
C247        C248   1.417       .  A
C247        C252   1.417       .  A
C248        C249   1.420       .  A
C248       Br259   1.932       .  S
C249        C250   1.415       .  A
C249       Br255   1.926       .  S
C250        C251   1.409       .  A
C251        C252   1.415       .  A
C251       Br260   1.920       .  S
C252       Br256   1.931       .  S
C261        C262   1.413       .  A
C261        C266   1.419       .  A
C262        C263   1.412       .  A
C262       Br274   1.930       .  S
C263        C264   1.414       .  A
C263       Br278   1.922       .  S
C264        C267   1.507       .  S
C264        C265   1.412       .  A
C265        C266   1.415       .  A
C265       Br273   1.931       .  S
C266       Br277   1.932       .  S
C267        C268   1.400       .  A
C267        C272   1.406       .  A
C268        C269   1.418       .  A
C268       Br279   1.938       .  S
C269        C270   1.449       .  A
C269       Br275   1.931       .  S
C270        C271   1.445       .  A
C271        C272   1.424       .  A
C271       Br280   1.926       .  S
C272       Br276   1.935       .  S
C281        C282   1.410       .  A
C281        C286   1.409       .  A
C282        C283   1.409       .  A
C282       Br294   1.930   1_554  S
C283        C284   1.412       .  A
C283       Br298   1.931       .  S
C284        C287   1.495       .  S
C284        C285   1.413       .  A
C285        C286   1.410       .  A
C285       Br293   1.922       .  S
C286       Br297   1.932       .  S
C287        C288   1.396       .  A
C287        C292   1.405       .  A
C288        C289   1.403       .  A
C288       Br299   1.937       .  S
C289        C290   1.442       .  A
C289       Br295   1.926       .  S
C290        C291   1.446       .  A
C291        C292   1.425       .  A
C291       Br300   1.921       .  S
C292       Br296   1.932       .  S
C301        C302   1.456       .  A
C301        C306   1.460       .  A
C302        C303   1.405       .  A
C302       Br314   1.931       .  S
C303        C304   1.390       .  A
C303       Br318   1.943       .  S
C304        C307   1.496       .  S
C304        C305   1.401       .  A
C305        C306   1.426       .  A
C305       Br313   1.936       .  S
C306       Br317   1.943       .  S
C307        C308   1.409       .  A
C307        C312   1.410       .  A
C308        C309   1.413       .  A
C308       Br319   1.931       .  S
C309        C310   1.419       .  A
C309       Br315   1.933       .  S
C310        C311   1.414       .  A
C311        C312   1.410       .  A
C311       Br320   1.931       .  S
C312       Br316   1.928       .  S
C321        C322   1.426       .  A
C321        C326   1.433       .  A
C322        C323   1.411       .  A
C322       Br334   1.936       .  S
C323        C324   1.406       .  A
C323       Br338   1.931       .  S
C324        C327   1.492       .  S
C324        C325   1.401       .  A
C325        C326   1.411       .  A
C325       Br333   1.934       .  S
C326       Br337   1.938       .  S
C327        C328   1.393       .  A
C327        C332   1.393       .  A
C328        C329   1.414       .  A
C328       Br339   1.953       .  S
C329        C330   1.468       .  A
C329       Br335   1.945       .  S
C330        C331   1.457       .  A
C331        C332   1.417       .  A
C331       Br340   1.936       .  S
C332       Br336   1.936       .  S
C341        C342   1.407       .  A
C341        C346   1.410       .  A
C342        C343   1.402       .  A
C342       Br354   1.932       .  S
C343        C344   1.410       .  A
C343       Br358   1.927       .  S
C344        C347   1.484       .  S
C344        C345   1.410       .  A
C345        C346   1.407       .  A
C345       Br353   1.932       .  S
C346       Br357   1.925       .  S
C347        C348   1.398       .  A
C347        C352   1.392       .  A
C348        C349   1.419       .  A
C348       Br359   1.943       .  S
C349        C350   1.461       .  A
C349       Br355   1.952       .  S
C350        C351   1.457       .  A
C351        C352   1.407       .  A
C351       Br360   1.938       .  S
C352       Br356   1.946       .  S
C361        C362   1.444       .  A
C361        C366   1.448       .  A
C362        C363   1.408       .  A
C362       Br374   1.918       .  S
C363        C364   1.397       .  A
C363       Br378   1.937       .  S
C364        C367   1.498       .  S
C364        C365   1.403       .  A
C365        C366   1.425       .  A
C365       Br373   1.935       .  S
C366       Br377   1.921       .  S
C367        C368   1.411       .  A
C367        C372   1.408       .  A
C368        C369   1.414       .  A
C368       Br379   1.925       .  S
C369        C370   1.418       .  A
C369       Br375   1.933       .  S
C370        C371   1.421       .  A
C371        C372   1.409       .  A
C371       Br380   1.935       .  S
C372       Br376   1.935       .  S
C381        C382   1.407       .  A
C381        C386   1.407       .  A
C382        C383   1.409       .  A
C382       Br394   1.929       .  S
C383        C384   1.415       .  A
C383       Br398   1.932       .  S
C384        C387   1.497       .  S
C384        C385   1.415       .  A
C385        C386   1.409       .  A
C385       Br393   1.925       .  S
C386       Br397   1.932       .  S
C387        C388   1.397       .  A
C387        C392   1.408       .  A
C388        C389   1.396       .  A
C388       Br399   1.931       .  S
C389        C390   1.433       .  A
C389       Br395   1.912       .  S
C390        C391   1.450       .  A
C391        C392   1.428       .  A
C391       Br400   1.923       .  S
C392       Br396   1.934       .  S
C401        C402   1.413       .  A
C401        C406   1.413       .  A
C402        C403   1.408       .  A
C402       Br414   1.932       .  S
C403        C404   1.410       .  A
C403       Br418   1.930       .  S
C404        C407   1.490       .  S
C404        C405   1.408       .  A
C405        C406   1.410       .  A
C405       Br413   1.929       .  S
C406       Br417   1.931       .  S
C407        C408   1.395       .  A
C407        C412   1.392       .  A
C408        C409   1.417       .  A
C408       Br419   1.943       .  S
C409        C410   1.462       .  A
C409       Br415   1.946       .  S
C410        C411   1.455       .  A
C411        C412   1.411       .  A
C411       Br420   1.934       .  S
C412       Br416   1.940       .  S
C421        C422   1.414       .  A
C421        C426   1.414       .  A
C422        C423   1.411       .  A
C422       Br434   1.929       .  S
C423        C424   1.410       .  A
C423       Br438   1.930       .  S
C424        C427   1.498       .  S
C424        C425   1.408       .  A
C425        C426   1.414       .  A
C425       Br433   1.930       .  S
C426       Br437   1.915       .  S
C427        C428   1.397       .  A
C427        C432   1.393       .  A
C428       C1189   1.421       .  A
C428      Br1199   1.935       .  S
C429       C1188   1.422       .  A
C429       C1190   1.458   1_545  A
C429       Br435   1.930       .  S
C430        C431   1.460       .  A
C430       C1189   1.458       .  A
C431        C432   1.410       .  A
C431       Br440   1.937       .  S
C432       Br436   1.943       .  S
Br439      C1188   1.935       .  S
C441        C442   1.418       .  A
C441        C446   1.412       .  A
C442        C443   1.412       .  A
C442       Br454   1.926       .  S
C443        C444   1.409       .  A
C443       Br458   1.930       .  S
C444        C447   1.496       .  S
C444        C445   1.413       .  A
C445        C446   1.407       .  A
C445       Br453   1.929       .  S
C446       Br457   1.930       .  S
C447        C448   1.400       .  A
C447        C452   1.395       .  A
C448        C449   1.415       .  A
C448       Br459   1.933       .  S
C449        C450   1.453       .  A
C449      Br1215   1.932       .  S
C450        C792   1.611       .  S
C450        C451   1.456       .  A
C451        C452   1.408       .  A
C451       Br460   1.936       .  S
C452       Br456   1.940       .  S
Br455      C1209   1.932       .  S
C461        C462   1.410       .  A
C461        C466   1.413       .  A
C462        C463   1.407       .  A
C462       Br474   1.931       .  S
C463        C464   1.410       .  A
C463       Br478   1.928       .  S
C464        C467   1.494       .  S
C464        C465   1.410   1_545  A
C465        C466   1.414   1_565  A
C465      Br1233   1.927       .  S
C466       Br477   1.927   1_545  S
C467        C468   1.395       .  A
C467        C472   1.397   1_545  A
C468        C469   1.410       .  A
C468       Br479   1.941       .  S
C469        C470   1.457       .  A
C469       Br475   1.943       .  S
C470        C471   1.455   1_545  A
C471        C472   1.417       .  A
C471       Br480   1.933       .  S
C472       Br476   1.934       .  S
Br473      C1225   1.927       .  S
C481        C482   1.416       .  A
C481        C486   1.419       .  A
C482        C483   1.411       .  A
C482       Br494   1.933       .  S
C483        C484   1.410       .  A
C483       Br498   1.927       .  S
C484        C487   1.494       .  S
C484        C485   1.408       .  A
C485        C486   1.410       .  A
C485       Br493   1.932       .  S
C486       Br497   1.933       .  S
C487        C488   1.398       .  A
C487        C492   1.396       .  A
C488        C489   1.417       .  A
C488       Br499   1.938       .  S
C489        C490   1.457       .  A
C489       Br495   1.946       .  S
C490        C792   1.609       .  S
C490        C491   1.456       .  A
C491        C492   1.413       .  A
C491      Br1260   1.935       .  S
C492       Br496   1.940       .  S
Br500      C1251   1.935       .  S
C501        C502   1.454       .  A
C501        C506   1.459       .  A
C502        C503   1.413       .  A
C502       Br514   1.934       .  S
C503        C504   1.395       .  A
C503       Br518   1.941       .  S
C504        C507   1.497       .  S
C504        C505   1.399       .  A
C505        C506   1.421       .  A
C505       Br513   1.939       .  S
C506       Br517   1.945       .  S
C507        C508   1.409       .  A
C507        C512   1.412       .  A
C508        C509   1.410       .  A
C508       Br519   1.930       .  S
C509        C510   1.414       .  A
C509       Br515   1.931       .  S
C510        C511   1.412       .  A
C511        C512   1.413       .  A
C511       Br520   1.930       .  S
C512       Br516   1.927       .  S
C521        C522   1.409       .  A
C521        C526   1.409       .  A
C522        C523   1.410       .  A
C522       Br534   1.929       .  S
C523        C524   1.414       .  A
C523       Br538   1.930   1_545  S
C524        C527   1.498       .  S
C524        C525   1.414       .  A
C525        C526   1.411       .  A
C525       Br533   1.928       .  S
C526       Br537   1.929       .  S
C527        C528   1.404   1_545  A
C527        C532   1.398       .  A
C528        C529   1.423       .  A
C528       Br539   1.935       .  S
C529        C530   1.444   1_565  A
C529      Br1295   1.920       .  S
C530        C777   1.615   1_545  S
C530        C531   1.450       .  A
C531        C532   1.411       .  A
C531       Br540   1.933       .  S
C532       Br536   1.944       .  S
Br535      C1289   1.920       .  S
C541        C542   1.445       .  A
C541        C546   1.453       .  A
C542        C543   1.414       .  A
C542       Br554   1.933       .  S
C543        C544   1.403       .  A
C543       Br558   1.935       .  S
C544        C547   1.510       .  S
C544        C545   1.404       .  A
C545        C546   1.428       .  A
C545       Br553   1.936       .  S
C546       Br557   1.925       .  S
C547        C548   1.410       .  A
C547        C552   1.411       .  A
C548        C549   1.417       .  A
C548      Br1319   1.932       .  S
C549        C550   1.425       .  A
C549       Br555   1.934       .  S
C550        C551   1.422       .  A
C551        C552   1.412       .  A
C551       Br560   1.937       .  S
C552       Br556   1.923       .  S
Br559      C1308   1.932   1_545  S
C561        C777   1.609   1_545  S
C561        C562   1.444       .  A
C561        C566   1.448       .  A
C562        C563   1.410       .  A
C562       Br574   1.920   1_545  S
C563        C564   1.400       .  A
C563       Br578   1.938       .  S
C564        C567   1.501       .  S
C564        C565   1.404       .  A
C565        C566   1.424       .  A
C565       Br573   1.936       .  S
C566       Br577   1.920       .  S
C567        C568   1.411       .  A
C567        C572   1.413       .  A
C568        C569   1.410       .  A
C568       Br579   1.934       .  S
C569        C570   1.419       .  A
C569       Br575   1.935       .  S
C570        C571   1.416       .  A
C571        C572   1.412       .  A
C571       Br580   1.935       .  S
C572       Br576   1.924       .  S
C581        C582   1.449       .  A
C581        C586   1.436       .  A
C582        C583   1.426       .  A
C582       Br594   1.918       .  S
C583        C584   1.407       .  A
C583       Br598   1.936       .  S
C584        C587   1.508       .  S
C584        C585   1.402       .  A
C585        C586   1.406       .  A
C585       Br593   1.930       .  S
C586       Br597   1.910       .  S
C587        C588   1.418       .  A
C587        C592   1.418       .  A
C588        C589   1.415       .  A
C588       Br599   1.931       .  S
C589        C590   1.410       .  A
C589       Br595   1.929       .  S
C590        C591   1.407       .  A
C591        C592   1.410       .  A
C591       Br600   1.931       .  S
C592       Br596   1.927       .  S
C601        C602   1.443       .  A
C601        C606   1.449       .  A
C602        C603   1.423       .  A
C602       Br614   1.931       .  S
C603        C604   1.407       .  A
C603       Br618   1.933       .  S
C604        C607   1.499       .  S
C604        C605   1.398       .  A
C605        C606   1.411       .  A
C605       Br613   1.938       .  S
C606       Br617   1.939       .  S
C607        C608   1.413       .  A
C607        C612   1.410       .  A
C608        C609   1.407       .  A
C608       Br619   1.920       .  S
C609        C610   1.413       .  A
C609       Br615   1.937       .  S
C610        C611   1.417       .  A
C611        C612   1.412       .  A
C611       Br620   1.931       .  S
C612       Br616   1.931       .  S
C621        C622   1.448       .  A
C621        C626   1.443       .  A
C622        C623   1.421       .  A
C622       Br634   1.924       .  S
C623        C624   1.402       .  A
C623       Br638   1.934       .  S
C624        C627   1.495       .  S
C624        C625   1.398       .  A
C625        C626   1.405       .  A
C625       Br633   1.937       .  S
C626       Br637   1.926       .  S
C627        C628   1.411       .  A
C627        C632   1.412       .  A
C628        C629   1.408       .  A
C628       Br639   1.932       .  S
C629        C630   1.412       .  A
C629       Br635   1.930       .  S
C630        C631   1.410       .  A
C631        C632   1.412       .  A
C631       Br640   1.928       .  S
C632       Br636   1.926       .  S
C641        C642   1.460       .  A
C641        C646   1.454       .  A
C642        C643   1.424       .  A
C642       Br654   1.946       .  S
C643        C644   1.401       .  A
C643       Br658   1.938       .  S
C644        C647   1.500       .  S
C644        C645   1.394       .  A
C645        C646   1.412       .  A
C645       Br653   1.944       .  S
C646       Br657   1.929       .  S
C647        C648   1.408       .  A
C647        C652   1.405       .  A
C648        C649   1.412       .  A
C648       Br659   1.928       .  S
C649        C650   1.424       .  A
C649       Br655   1.936       .  S
C650        C651   1.432       .  A
C651        C652   1.415       .  A
C651       Br660   1.935       .  S
C652       Br656   1.934       .  S
C661        C662   1.417       .  A
C661        C666   1.412       .  A
C662        C663   1.409       .  A
C662       Br674   1.933       .  S
C663        C664   1.407       .  A
C663       Br678   1.930       .  S
C664        C667   1.496       .  S
C664        C665   1.412       .  A
C665        C666   1.411       .  A
C665       Br673   1.924       .  S
C666       Br677   1.932       .  S
C667        C668   1.396       .  A
C667        C672   1.394       .  A
C668        C669   1.421       .  A
C668       Br679   1.947       .  S
C669        C670   1.464       .  A
C669       Br675   1.948       .  S
C670        C671   1.459       .  A
C671        C672   1.414       .  A
C671       Br680   1.946       .  S
C672       Br676   1.938       .  S
C681        C682   1.461       .  A
C681        C686   1.461       .  A
C682        C683   1.417       .  A
C682       Br694   1.955       .  S
C683        C684   1.395       .  A
C683       Br698   1.939       .  S
C684        C687   1.488       .  S
C684        C685   1.392       .  A
C685        C686   1.414       .  A
C685       Br693   1.948       .  S
C686       Br697   1.942       .  S
C687        C688   1.410       .  A
C687        C692   1.410       .  A
C688        C689   1.408       .  A
C688       Br699   1.930       .  S
C689        C690   1.410       .  A
C689       Br695   1.926       .  S
C690        C691   1.409       .  A
C691        C692   1.407       .  A
C691       Br700   1.928       .  S
C692       Br696   1.928       .  S
C701        C702   1.423       .  A
C701        C706   1.429       .  A
C702        C703   1.414       .  A
C702       Br714   1.934       .  S
C703        C704   1.408       .  A
C703       Br718   1.928       .  S
C704        C707   1.494       .  S
C704        C705   1.404       .  A
C705        C706   1.408       .  A
C705       Br713   1.936       .  S
C706       Br717   1.939       .  S
C707        C708   1.395       .  A
C707        C712   1.395       .  A
C708        C709   1.413       .  A
C708       Br719   1.936       .  S
C709        C710   1.453       .  A
C709       Br715   1.933       .  S
C710        C711   1.458       .  A
C711        C712   1.421       .  A
C711       Br720   1.917       .  S
C712       Br716   1.948       .  S
C721        C722   1.408       .  A
C721        C726   1.409       .  A
C722        C723   1.409       .  A
C722       Br734   1.930       .  S
C723        C724   1.416       .  A
C723       Br738   1.932       .  S
C724        C727   1.495       .  S
C724        C725   1.413       .  A
C725        C726   1.409       .  A
C725       Br733   1.927       .  S
C726       Br737   1.930       .  S
C727        C728   1.408       .  A
C727        C732   1.395       .  A
C728        C729   1.428       .  A
C728       Br739   1.932       .  S
C729        C730   1.451       .  A
C729       Br735   1.926       .  S
C730        C731   1.434       .  A
C731        C732   1.394       .  A
C731       Br740   1.907       .  S
C732       Br736   1.934       .  S
C741        C742   1.417       .  A
C741        C746   1.422       .  A
C742        C743   1.412       .  A
C742       Br754   1.932       .  S
C743        C744   1.410       .  A
C743       Br758   1.925       .  S
C744        C747   1.493       .  S
C744        C745   1.407       .  A
C745        C746   1.408       .  A
C745       Br753   1.935       .  S
C746       Br757   1.936       .  S
C747        C748   1.401       .  A
C747        C752   1.395       .  A
C748        C749   1.423       .  A
C748       Br759   1.937       .  S
C749        C750   1.451       .  A
C749       Br755   1.922       .  S
C750        C751   1.447       .  A
C751        C752   1.408       .  A
C751       Br760   1.920       .  S
C752       Br756   1.939       .  S
O761       Ni769   1.937   1_565  S
O761        C771   1.285       .  A
O762        C772   1.283       .  A
O763       Ni769   1.901   1_665  S
O763        C773   1.276       .  A
O764        C774   1.275       .  A
O765       Ni770   1.941       .  S
O765        C774   1.286       .  A
O766        C773   1.287       .  A
O767       Ni770   1.914   1_655  S
O767        C772   1.279       .  A
O768        C771   1.275       .  A
C771       C1450   1.475       .  S
C772       C1481   1.477       .  S
C773       C1501   1.494       .  S
C774       C1461   1.507       .  S
C775       C1401   1.609       .  S
C775       C1430   1.618       .  S
C775       C1441   1.625       .  S
C775       C1470   1.625       .  S
C776       C1361   1.612       .  S
C776       C1381   1.602       .  S
C776       C1490   1.611       .  S
C776       C1510   1.614       .  S
C777       C1301   1.625       .  S
C777       C1341   1.616       .  S
O778       Ni786   1.929       .  S
O778        C788   1.284       .  A
O779       Ni786   1.930       .  S
O779        C789   1.284       .  A
O780       Ni786   1.920       .  S
O780        C790   1.280       .  A
O781       Ni786   1.916       .  S
O781        C791   1.280       .  A
O782       Ni787   1.935       .  S
O782        C791   1.285       .  A
O783       Ni787   1.936       .  S
O783        C790   1.284       .  A
O784       Ni787   1.912       .  S
O784        C789   1.279       .  A
O785       Ni787   1.914       .  S
O785        C788   1.279       .  A
Ni786      Ni787   2.383       .  S
C788       C1241   1.493       .  S
C789       C1330   1.495       .  S
C790       C1350   1.485       .  S
C791       C1270   1.489       .  S
C792       C1230   1.613       .  S
C792       C1261   1.609       .  S
O793       Ni801   1.926       .  S
O793        C803   1.283       .  A
O794       Ni801   1.934   1_556  S
O794        C804   1.286       .  A
O795       Ni801   1.922       .  S
O795        C805   1.281       .  A
O796       Ni801   1.918   1_556  S
O796        C806   1.277       .  A
O797       Ni802   1.937   1_556  S
O797        C806   1.287       .  A
O798       Ni802   1.947       .  S
O798        C805   1.287       .  A
O799       Ni802   1.914   1_556  S
O799        C804   1.278       .  A
O800       Ni802   1.915       .  S
O800        C803   1.279       .  A
Ni801      Ni802   2.380       .  S
C803       C1161   1.483       .  S
C804       C1201   1.494       .  S
C805       C1181   1.496       .  S
C806       C1410   1.515       .  S
O807       Ni815   1.908   1_455  S
O807        C817   1.277       .  A
O808        C818   1.279       .  A
O809       Ni815   1.924       .  S
O809        C819   1.282       .  A
O810        C820   1.284       .  A
O811        C820   1.275       .  A
O812       Ni816   1.913   1_665  S
O812        C819   1.279       .  A
O813        C818   1.286       .  A
O814       Ni816   1.932   1_565  S
O814        C817   1.284       .  A
Ni815      Ni816   2.382   1_665  S
C817       C1081   1.509       .  S
C818       C1130   1.498       .  S
C819       C1141   1.474       .  S
C820       C1101   1.469       .  S
C821       C1061   1.616       .  S
C821       C1090   1.622       .  S
C821       C1110   1.605       .  S
C821       C1170   1.613       .  S
C822       C1030   1.621       .  S
C822       C1050   1.606       .  S
C822       C1121   1.613       .  S
C822       C1150   1.612       .  S
C823        C950   1.634       .  S
C823       C1001   1.620   1_545  S
C824        C901   1.617       .  S
C824       C1190   1.624       .  S
O825       Ni833   1.922       .  S
O825        C835   1.281       .  A
O826       Ni833   1.923       .  S
O826        C836   1.281       .  A
O827       Ni833   1.953       .  S
O827        C837   1.288       .  A
O828       Ni833   1.940       .  S
O828        C838   1.287       .  A
O829       Ni834   1.930       .  S
O829        C838   1.282       .  A
O830       Ni834   1.933       .  S
O830        C837   1.283       .  A
O831       Ni834   1.937       .  S
O831        C836   1.284       .  A
O832       Ni834   1.928       .  S
O832        C835   1.284       .  A
Ni833      Ni834   2.382       .  S
C835        C910   1.496       .  S
C836        C990   1.489       .  S
C837       C1010   1.504       .  S
C838        C930   1.508       .  S
O839       Ni847   1.923       .  S
O839        C849   1.282       .  A
O840       Ni847   1.922   1_554  S
O840        C850   1.281       .  A
O841       Ni847   1.921       .  S
O841        C851   1.281       .  A
O842       Ni847   1.924   1_554  S
O842        C852   1.282       .  A
O843       Ni848   1.924   1_554  S
O843        C852   1.282       .  A
O844       Ni848   1.920       .  S
O844        C851   1.282       .  A
O845       Ni848   1.919   1_554  S
O845        C850   1.281       .  A
O846       Ni848   1.925       .  S
O846        C849   1.281       .  A
Ni847      Ni848   2.386       .  S
C849       C1281   1.480       .  S
C850       C1041   1.478       .  S
C851       C1370   1.490       .  S
C852        C970   1.495       .  S
O853       Ni861   1.921       .  S
O853        C863   1.282       .  A
O854       Ni861   1.923       .  S
O854        C864   1.282       .  A
O855       Ni861   1.909       .  S
O855        C865   1.279       .  A
O856       Ni861   1.917       .  S
O856        C866   1.280       .  A
O857       Ni862   1.935       .  S
O857        C866   1.285       .  A
O858       Ni862   1.933       .  S
O858        C865   1.285       .  A
O859       Ni862   1.924       .  S
O859        C864   1.282       .  A
O860       Ni862   1.929       .  S
O860        C863   1.282       .  A
Ni861      Ni862   2.386       .  S
C863       C1221   1.484       .  S
C864       C1070   1.492       .  S
C865       C1421   1.487       .  S
C866        C881   1.487       .  S
O867       Ni875   1.913       .  S
O867        C877   1.280       .  A
O868       Ni875   1.920       .  S
O868        C878   1.280       .  A
O869       Ni875   1.931       .  S
O869        C879   1.283       .  A
O870       Ni875   1.936       .  S
O870        C880   1.286       .  A
O871       Ni876   1.922       .  S
O871        C880   1.281       .  A
O872       Ni876   1.922       .  S
O872        C879   1.281       .  A
O873       Ni876   1.921       .  S
O873        C878   1.282       .  A
O874       Ni876   1.932       .  S
O874        C877   1.284       .  A
Ni875      Ni876   2.377       .  S
C877       C1390   1.483       .  S
C878        C941   1.499       .  S
C879       C1310   1.512       .  S
C880       C1021   1.500       .  S
C881        C882   1.414       .  A
C881        C886   1.411       .  A
C882        C883   1.410       .  A
C882       Br894   1.930       .  S
C883        C884   1.411       .  A
C883       Br898   1.930       .  S
C884        C887   1.501       .  S
C884        C885   1.414       .  A
C885        C886   1.413       .  A
C885       Br893   1.931       .  S
C886       Br897   1.930       .  S
C887        C888   1.398       .  A
C887        C892   1.396       .  A
C888        C889   1.421       .  A
C888       Br899   1.953       .  S
C889        C890   1.467       .  A
C889       Br895   1.947       .  S
C890        C891   1.454       .  A
C891        C892   1.419       .  A
C892       Br896   1.940       .  S
C901        C902   1.458       .  A
C901        C906   1.458       .  A
C902        C903   1.416       .  A
C902       Br914   1.935       .  S
C903        C904   1.397       .  A
C903       Br918   1.940       .  S
C904        C907   1.501       .  S
C904        C905   1.400       .  A
C905        C906   1.420       .  A
C905       Br913   1.936       .  S
C906       Br917   1.944       .  S
C907        C908   1.412       .  A
C907        C912   1.409       .  A
C908        C909   1.412       .  A
C908       Br919   1.925       .  S
C909        C910   1.416       .  A
C909       Br915   1.935       .  S
C910        C911   1.419       .  A
C911        C912   1.413       .  A
C911       Br920   1.931       .  S
C912       Br916   1.931       .  S
C921        C922   1.454       .  A
C921        C926   1.458       .  A
C922        C923   1.416       .  A
C922       Br934   1.928       .  S
C923        C924   1.397       .  A
C923       Br938   1.939       .  S
C924        C927   1.512       .  S
C924        C925   1.404       .  A
C925        C926   1.427       .  A
C925       Br933   1.937       .  S
C926       Br937   1.938       .  S
C927        C928   1.414       .  A
C927        C932   1.412       .  A
C928        C929   1.416       .  A
C928       Br939   1.928       .  S
C929        C930   1.417       .  A
C929       Br935   1.932       .  S
C930        C931   1.422       .  A
C931        C932   1.418       .  A
C931       Br940   1.932       .  S
C932       Br936   1.931       .  S
C941        C942   1.422       .  A
C941        C946   1.422       .  A
C942        C943   1.410       .  A
C942       Br954   1.935       .  S
C943        C944   1.406       .  A
C943       Br958   1.929       .  S
C944        C947   1.494       .  S
C944        C945   1.409       .  A
C945        C946   1.409       .  A
C945       Br953   1.934   1_565  S
C946       Br957   1.931       .  S
C947        C948   1.395       .  A
C947        C952   1.398   1_565  A
C948        C949   1.412       .  A
C948       Br959   1.951       .  S
C949        C950   1.453   1_565  A
C949       Br955   1.938       .  S
C950        C951   1.457       .  A
C951        C952   1.422       .  A
C952       Br956   1.939       .  S
C961        C962   1.453       .  A
C961        C966   1.452       .  A
C962        C963   1.424       .  A
C963        C964   1.403       .  A
C964        C967   1.500       .  S
C964        C965   1.396       .  A
C965        C966   1.414       .  A
C965       Br973   1.946       .  S
C966       Br977   1.916       .  S
C967        C968   1.411       .  A
C967        C972   1.410       .  A
C968        C969   1.412       .  A
C968       Br979   1.930       .  S
C969        C970   1.417       .  A
C969       Br975   1.933       .  S
C970        C971   1.418       .  A
C971        C972   1.412       .  A
C971       Br980   1.934       .  S
C972       Br976   1.927       .  S
C981        C982   1.466       .  A
C981        C986   1.451       .  A
C982        C983   1.418       .  A
C982       Br994   1.945       .  S
C983        C984   1.395       .  A
C983       Br998   1.949       .  S
C984        C987   1.505       .  S
C984        C985   1.400       .  A
C985        C986   1.420       .  A
C985       Br993   1.940       .  S
C986       Br997   1.933       .  S
C987        C988   1.417       .  A
C987        C992   1.414       .  A
C988        C989   1.409       .  A
C988       Br999   1.933       .  S
C989        C990   1.407       .  A
C989       Br995   1.921       .  S
C990        C991   1.414       .  A
C991        C992   1.412       .  A
C991      Br1000   1.925       .  S
C992       Br996   1.931       .  S
C1001      C1002   1.447       .  A
C1001      C1006   1.437       .  A
C1002      C1003   1.427       .  A
C1002     Br1014   1.920       .  S
C1003      C1004   1.409       .  A
C1003     Br1018   1.936       .  S
C1004      C1007   1.517       .  S
C1004      C1005   1.404       .  A
C1005      C1006   1.410       .  A
C1005     Br1013   1.929       .  S
C1006     Br1017   1.917       .  S
C1007      C1008   1.418       .  A
C1007      C1012   1.417       .  A
C1008      C1009   1.420       .  A
C1008     Br1019   1.931       .  S
C1009      C1010   1.415       .  A
C1009     Br1015   1.926       .  S
C1010      C1011   1.409       .  A
C1011      C1012   1.415       .  A
C1011     Br1020   1.920       .  S
C1012     Br1016   1.931       .  S
C1021      C1022   1.413       .  A
C1021      C1026   1.419       .  A
C1022      C1023   1.412       .  A
C1022     Br1034   1.930       .  S
C1023      C1024   1.414       .  A
C1023     Br1038   1.922       .  S
C1024      C1027   1.508       .  S
C1024      C1025   1.412       .  A
C1025      C1026   1.415       .  A
C1025     Br1033   1.931       .  S
C1026     Br1037   1.932       .  S
C1027      C1028   1.400       .  A
C1027      C1032   1.406       .  A
C1028      C1029   1.418       .  A
C1028     Br1039   1.938       .  S
C1029      C1030   1.449       .  A
C1029     Br1035   1.931       .  S
C1030      C1031   1.445       .  A
C1031      C1032   1.424       .  A
C1031     Br1040   1.926       .  S
C1032     Br1036   1.935       .  S
C1041      C1042   1.410       .  A
C1041      C1046   1.409       .  A
C1042      C1043   1.409       .  A
C1042     Br1054   1.930   1_554  S
C1043      C1044   1.412       .  A
C1043     Br1058   1.931       .  S
C1044      C1047   1.495       .  S
C1044      C1045   1.412       .  A
C1045      C1046   1.410       .  A
C1045     Br1053   1.922       .  S
C1046     Br1057   1.932       .  S
C1047      C1048   1.396       .  A
C1047      C1052   1.405       .  A
C1048      C1049   1.403       .  A
C1048     Br1059   1.937       .  S
C1049      C1050   1.442       .  A
C1049     Br1055   1.926       .  S
C1050      C1051   1.446       .  A
C1051      C1052   1.425       .  A
C1051     Br1060   1.921       .  S
C1052     Br1056   1.932       .  S
C1061      C1062   1.456       .  A
C1061      C1066   1.460       .  A
C1062      C1063   1.405       .  A
C1062     Br1074   1.931       .  S
C1063      C1064   1.390       .  A
C1063     Br1078   1.943       .  S
C1064      C1067   1.496       .  S
C1064      C1065   1.401       .  A
C1065      C1066   1.426       .  A
C1065     Br1073   1.936       .  S
C1066     Br1077   1.943       .  S
C1067      C1068   1.409       .  A
C1067      C1072   1.410       .  A
C1068      C1069   1.413       .  A
C1068     Br1079   1.931       .  S
C1069      C1070   1.419       .  A
C1069     Br1075   1.933       .  S
C1070      C1071   1.414       .  A
C1071      C1072   1.410       .  A
C1071     Br1080   1.931       .  S
C1072     Br1076   1.928       .  S
C1081      C1082   1.426       .  A
C1081      C1086   1.433       .  A
C1082      C1083   1.411       .  A
C1082     Br1094   1.936       .  S
C1083      C1084   1.406       .  A
C1083     Br1098   1.931       .  S
C1084      C1087   1.491       .  S
C1084      C1085   1.401       .  A
C1085      C1086   1.411       .  A
C1085     Br1093   1.934       .  S
C1086     Br1097   1.938       .  S
C1087      C1088   1.393       .  A
C1087      C1092   1.393       .  A
C1088      C1089   1.414       .  A
C1088     Br1099   1.953       .  S
C1089      C1090   1.468       .  A
C1089     Br1095   1.945       .  S
C1090      C1091   1.457       .  A
C1091      C1092   1.416       .  A
C1091     Br1100   1.936       .  S
C1092     Br1096   1.937       .  S
C1101      C1102   1.407       .  A
C1101      C1106   1.410       .  A
C1102      C1103   1.402       .  A
C1102     Br1114   1.932       .  S
C1103      C1104   1.410       .  A
C1103     Br1118   1.927       .  S
C1104      C1107   1.484       .  S
C1104      C1105   1.410       .  A
C1105      C1106   1.407       .  A
C1105     Br1113   1.932       .  S
C1106     Br1117   1.925       .  S
C1107      C1108   1.397       .  A
C1107      C1112   1.392       .  A
C1108      C1109   1.419       .  A
C1108     Br1119   1.943       .  S
C1109      C1110   1.461       .  A
C1109     Br1115   1.952       .  S
C1110      C1111   1.457       .  A
C1111      C1112   1.407       .  A
C1111     Br1120   1.938       .  S
C1112     Br1116   1.946       .  S
C1121      C1122   1.444       .  A
C1121      C1126   1.448       .  A
C1122      C1123   1.408       .  A
C1122     Br1134   1.918       .  S
C1123      C1124   1.397       .  A
C1123     Br1138   1.937       .  S
C1124      C1127   1.498       .  S
C1124      C1125   1.403       .  A
C1125      C1126   1.425       .  A
C1125     Br1133   1.935       .  S
C1126     Br1137   1.921       .  S
C1127      C1128   1.411       .  A
C1127      C1132   1.408       .  A
C1128      C1129   1.414       .  A
C1128     Br1139   1.925       .  S
C1129      C1130   1.418       .  A
C1129     Br1135   1.933       .  S
C1130      C1131   1.421       .  A
C1131      C1132   1.409       .  A
C1131     Br1140   1.935       .  S
C1132     Br1136   1.935       .  S
C1141      C1142   1.407       .  A
C1141      C1146   1.407       .  A
C1142      C1143   1.408       .  A
C1142     Br1154   1.929       .  S
C1143      C1144   1.415       .  A
C1143     Br1158   1.932       .  S
C1144      C1147   1.496       .  S
C1144      C1145   1.415       .  A
C1145      C1146   1.409       .  A
C1145     Br1153   1.925       .  S
C1146     Br1157   1.932       .  S
C1147      C1148   1.397       .  A
C1147      C1152   1.408       .  A
C1148      C1149   1.396       .  A
C1148     Br1159   1.931       .  S
C1149      C1150   1.433       .  A
C1149     Br1155   1.912       .  S
C1150      C1151   1.450       .  A
C1151      C1152   1.428       .  A
C1151     Br1160   1.923       .  S
C1152     Br1156   1.934       .  S
C1161      C1162   1.414       .  A
C1161      C1166   1.414       .  A
C1162      C1163   1.408       .  A
C1162     Br1174   1.932       .  S
C1163      C1164   1.409       .  A
C1163     Br1178   1.930       .  S
C1164      C1167   1.490       .  S
C1164      C1165   1.408       .  A
C1165      C1166   1.410       .  A
C1165     Br1173   1.929       .  S
C1166     Br1177   1.931       .  S
C1167      C1168   1.395       .  A
C1167      C1172   1.392       .  A
C1168      C1169   1.417       .  A
C1168     Br1179   1.943       .  S
C1169      C1170   1.462       .  A
C1169     Br1175   1.946       .  S
C1170      C1171   1.455       .  A
C1171      C1172   1.411       .  A
C1171     Br1180   1.934       .  S
C1172     Br1176   1.940       .  S
C1181      C1182   1.414       .  A
C1181      C1186   1.414       .  A
C1182      C1183   1.411       .  A
C1182     Br1194   1.929       .  S
C1183      C1184   1.410       .  A
C1183     Br1198   1.929       .  S
C1184      C1187   1.498       .  S
C1184      C1185   1.408       .  A
C1185      C1186   1.414       .  A
C1185     Br1193   1.930   1_565  S
C1186     Br1197   1.915       .  S
C1187      C1188   1.397   1_565  A
C1187      C1192   1.393       .  A
C1189     Br1195   1.930       .  S
C1190      C1191   1.460       .  A
C1191      C1192   1.410       .  A
C1191     Br1200   1.937       .  S
C1192     Br1196   1.943       .  S
C1201      C1202   1.418       .  A
C1201      C1206   1.412       .  A
C1202      C1203   1.412       .  A
C1202     Br1214   1.926   1_565  S
C1203      C1204   1.409       .  A
C1203     Br1218   1.930   1_565  S
C1204      C1207   1.496       .  S
C1204      C1205   1.413       .  A
C1205      C1206   1.407       .  A
C1205     Br1213   1.929       .  S
C1206     Br1217   1.930       .  S
C1207      C1208   1.400   1_565  A
C1207      C1212   1.395       .  A
C1208      C1209   1.415       .  A
C1208     Br1219   1.933       .  S
C1209      C1210   1.453   1_545  A
C1210      C1211   1.456       .  A
C1211      C1212   1.408       .  A
C1211     Br1220   1.936       .  S
C1212     Br1216   1.940       .  S
C1221      C1222   1.410       .  A
C1221      C1226   1.413       .  A
C1222      C1223   1.407       .  A
C1222     Br1234   1.931       .  S
C1223      C1224   1.411       .  A
C1223     Br1238   1.928       .  S
C1224      C1227   1.494       .  S
C1224      C1225   1.410       .  A
C1225      C1226   1.414       .  A
C1226     Br1237   1.927       .  S
C1227      C1228   1.395       .  A
C1227      C1232   1.397       .  A
C1228      C1229   1.410       .  A
C1228     Br1239   1.942       .  S
C1229      C1230   1.457       .  A
C1229     Br1235   1.943       .  S
C1230      C1231   1.455       .  A
C1231      C1232   1.417       .  A
C1231     Br1240   1.933       .  S
C1232     Br1236   1.934       .  S
C1241      C1242   1.416       .  A
C1241      C1246   1.419       .  A
C1242      C1243   1.410       .  A
C1242     Br1254   1.933       .  S
C1243      C1244   1.410       .  A
C1243     Br1258   1.927       .  S
C1244      C1247   1.494       .  S
C1244      C1245   1.408       .  A
C1245      C1246   1.410       .  A
C1245     Br1253   1.932       .  S
C1246     Br1257   1.933       .  S
C1247      C1248   1.398       .  A
C1247      C1252   1.396       .  A
C1248      C1249   1.416       .  A
C1248     Br1259   1.938       .  S
C1249      C1250   1.457       .  A
C1249     Br1255   1.946       .  S
C1250      C1251   1.456       .  A
C1251      C1252   1.413       .  A
C1252     Br1256   1.940       .  S
C1261      C1262   1.454       .  A
C1261      C1266   1.459       .  A
C1262      C1263   1.413       .  A
C1262     Br1274   1.934       .  S
C1263      C1264   1.395       .  A
C1263     Br1278   1.941       .  S
C1264      C1267   1.497       .  S
C1264      C1265   1.399       .  A
C1265      C1266   1.421       .  A
C1265     Br1273   1.939       .  S
C1266     Br1277   1.946       .  S
C1267      C1268   1.409       .  A
C1267      C1272   1.412       .  A
C1268      C1269   1.410       .  A
C1268     Br1279   1.930       .  S
C1269      C1270   1.414       .  A
C1269     Br1275   1.931       .  S
C1270      C1271   1.412       .  A
C1271      C1272   1.413       .  A
C1271     Br1280   1.930       .  S
C1272     Br1276   1.927       .  S
C1281      C1282   1.409       .  A
C1281      C1286   1.408       .  A
C1282      C1283   1.410       .  A
C1282     Br1294   1.929       .  S
C1283      C1284   1.414       .  A
C1283     Br1298   1.930       .  S
C1284      C1287   1.498       .  S
C1284      C1285   1.414       .  A
C1285      C1286   1.410       .  A
C1285     Br1293   1.927       .  S
C1286     Br1297   1.929       .  S
C1287      C1288   1.404       .  A
C1287      C1292   1.398       .  A
C1288      C1289   1.423       .  A
C1288     Br1299   1.936       .  S
C1289      C1290   1.444       .  A
C1290      C1291   1.451       .  A
C1291      C1292   1.411       .  A
C1291     Br1300   1.933       .  S
C1292     Br1296   1.945       .  S
C1301      C1302   1.445       .  A
C1301      C1306   1.452       .  A
C1302      C1303   1.412       .  A
C1302     Br1314   1.933   1_565  S
C1303      C1304   1.402       .  A
C1303     Br1318   1.934       .  S
C1304      C1307   1.509       .  S
C1304      C1305   1.404       .  A
C1305      C1306   1.428       .  A
C1305     Br1313   1.935       .  S
C1306     Br1317   1.925   1_565  S
C1307      C1308   1.410       .  A
C1307      C1312   1.411       .  A
C1308      C1309   1.417       .  A
C1309      C1310   1.426       .  A
C1309     Br1315   1.934       .  S
C1310      C1311   1.424       .  A
C1311      C1312   1.412       .  A
C1311     Br1320   1.938       .  S
C1312     Br1316   1.923       .  S
C1321      C1322   1.444       .  A
C1321      C1326   1.448       .  A
C1322      C1323   1.410       .  A
C1322     Br1334   1.921       .  S
C1323      C1324   1.400       .  A
C1323     Br1338   1.938       .  S
C1324      C1327   1.502       .  S
C1324      C1325   1.405       .  A
C1325      C1326   1.424       .  A
C1325     Br1333   1.936       .  S
C1326     Br1337   1.921       .  S
C1327      C1328   1.411       .  A
C1327      C1332   1.413       .  A
C1328      C1329   1.410       .  A
C1328     Br1339   1.934       .  S
C1329      C1330   1.419       .  A
C1329     Br1335   1.935       .  S
C1330      C1331   1.416       .  A
C1331      C1332   1.412       .  A
C1331     Br1340   1.935       .  S
C1332     Br1336   1.924       .  S
C1341      C1342   1.449       .  A
C1341      C1346   1.435       .  A
C1342      C1343   1.427       .  A
C1342     Br1354   1.919       .  S
C1343      C1344   1.407       .  A
C1343     Br1358   1.936       .  S
C1344      C1347   1.508       .  S
C1344      C1345   1.402       .  A
C1345      C1346   1.406       .  A
C1345     Br1353   1.930       .  S
C1346     Br1357   1.910       .  S
C1347      C1348   1.418       .  A
C1347      C1352   1.418       .  A
C1348      C1349   1.415       .  A
C1348     Br1359   1.931       .  S
C1349      C1350   1.409       .  A
C1349     Br1355   1.929       .  S
C1350      C1351   1.407       .  A
C1351      C1352   1.410       .  A
C1351     Br1360   1.931       .  S
C1352     Br1356   1.927       .  S
C1361      C1362   1.443       .  A
C1361      C1366   1.448       .  A
C1362      C1363   1.423       .  A
C1362     Br1374   1.930       .  S
C1363      C1364   1.407       .  A
C1363     Br1378   1.933       .  S
C1364      C1367   1.499       .  S
C1364      C1365   1.398       .  A
C1365      C1366   1.411       .  A
C1365     Br1373   1.937       .  S
C1366     Br1377   1.938       .  S
C1367      C1368   1.413       .  A
C1367      C1372   1.410       .  A
C1368      C1369   1.407       .  A
C1368     Br1379   1.920       .  S
C1369      C1370   1.413       .  A
C1369     Br1375   1.937       .  S
C1370      C1371   1.417       .  A
C1371      C1372   1.412       .  A
C1371     Br1380   1.931       .  S
C1372     Br1376   1.931       .  S
C1381      C1382   1.448       .  A
C1381      C1386   1.443       .  A
C1382      C1383   1.422       .  A
C1382     Br1394   1.924       .  S
C1383      C1384   1.403       .  A
C1383     Br1398   1.934       .  S
C1384      C1387   1.495       .  S
C1384      C1385   1.398       .  A
C1385      C1386   1.405       .  A
C1385     Br1393   1.937       .  S
C1386     Br1397   1.926       .  S
C1387      C1388   1.411       .  A
C1387      C1392   1.413       .  A
C1388      C1389   1.408       .  A
C1388     Br1399   1.932       .  S
C1389      C1390   1.412       .  A
C1389     Br1395   1.931       .  S
C1390      C1391   1.410       .  A
C1391      C1392   1.412       .  A
C1391     Br1400   1.929       .  S
C1392     Br1396   1.925       .  S
C1401      C1402   1.460       .  A
C1401      C1406   1.455       .  A
C1402      C1403   1.424       .  A
C1402     Br1414   1.946       .  S
C1403      C1404   1.401       .  A
C1403     Br1418   1.938       .  S
C1404      C1407   1.500       .  S
C1404      C1405   1.394       .  A
C1405      C1406   1.412       .  A
C1405     Br1413   1.944       .  S
C1406     Br1417   1.929       .  S
C1407      C1408   1.408       .  A
C1407      C1412   1.405       .  A
C1408      C1409   1.412       .  A
C1408     Br1419   1.929       .  S
C1409      C1410   1.424       .  A
C1409     Br1415   1.935       .  S
C1410      C1411   1.432       .  A
C1411      C1412   1.415       .  A
C1411     Br1420   1.935       .  S
C1412     Br1416   1.934       .  S
C1421      C1422   1.417       .  A
C1421      C1426   1.412       .  A
C1422      C1423   1.409       .  A
C1422     Br1434   1.933       .  S
C1423      C1424   1.407       .  A
C1423     Br1438   1.930       .  S
C1424      C1427   1.496       .  S
C1424      C1425   1.412       .  A
C1425      C1426   1.411       .  A
C1425     Br1433   1.924       .  S
C1426     Br1437   1.932       .  S
C1427      C1428   1.396       .  A
C1427      C1432   1.394       .  A
C1428      C1429   1.421       .  A
C1428     Br1439   1.947       .  S
C1429      C1430   1.464       .  A
C1429     Br1435   1.948       .  S
C1430      C1431   1.459       .  A
C1431      C1432   1.414       .  A
C1431     Br1440   1.946       .  S
C1432     Br1436   1.938       .  S
C1441      C1442   1.462       .  A
C1441      C1446   1.461       .  A
C1442      C1443   1.417       .  A
C1442     Br1454   1.955       .  S
C1443      C1444   1.395       .  A
C1443     Br1458   1.939       .  S
C1444      C1447   1.488       .  S
C1444      C1445   1.392       .  A
C1445      C1446   1.414       .  A
C1445     Br1453   1.948       .  S
C1446     Br1457   1.942       .  S
C1447      C1448   1.410       .  A
C1447      C1452   1.410       .  A
C1448      C1449   1.408       .  A
C1448     Br1459   1.930       .  S
C1449      C1450   1.410       .  A
C1449     Br1455   1.926       .  S
C1450      C1451   1.408       .  A
C1451      C1452   1.407       .  A
C1451     Br1460   1.928       .  S
C1452     Br1456   1.928       .  S
C1461      C1462   1.423       .  A
C1461      C1466   1.429       .  A
C1462      C1463   1.414       .  A
C1462     Br1474   1.934       .  S
C1463      C1464   1.409       .  A
C1463     Br1478   1.928       .  S
C1464      C1467   1.495       .  S
C1464      C1465   1.404       .  A
C1465      C1466   1.408       .  A
C1465     Br1473   1.936       .  S
C1466     Br1477   1.939       .  S
C1467      C1468   1.395       .  A
C1467      C1472   1.395       .  A
C1468      C1469   1.414       .  A
C1468     Br1479   1.936       .  S
C1469      C1470   1.454       .  A
C1469     Br1475   1.933       .  S
C1470      C1471   1.459       .  A
C1471      C1472   1.422       .  A
C1471     Br1480   1.917       .  S
C1472     Br1476   1.949       .  S
C1481      C1482   1.408       .  A
C1481      C1486   1.409       .  A
C1482      C1483   1.409       .  A
C1482     Br1494   1.930       .  S
C1483      C1484   1.416       .  A
C1483     Br1498   1.932       .  S
C1484      C1487   1.495       .  S
C1484      C1485   1.413       .  A
C1485      C1486   1.409       .  A
C1485     Br1493   1.926       .  S
C1486     Br1497   1.930       .  S
C1487      C1488   1.408       .  A
C1487      C1492   1.395       .  A
C1488      C1489   1.429       .  A
C1488     Br1499   1.932       .  S
C1489      C1490   1.450       .  A
C1489     Br1495   1.926       .  S
C1490      C1491   1.434       .  A
C1491      C1492   1.394       .  A
C1491     Br1500   1.906       .  S
C1492     Br1496   1.934       .  S
C1501      C1502   1.416       .  A
C1501      C1506   1.422       .  A
C1502      C1503   1.412       .  A
C1502     Br1514   1.932       .  S
C1503      C1504   1.410       .  A
C1503     Br1518   1.925       .  S
C1504      C1507   1.493       .  S
C1504      C1505   1.407       .  A
C1505      C1506   1.408       .  A
C1505     Br1513   1.935       .  S
C1506     Br1517   1.936       .  S
C1507      C1508   1.401       .  A
C1507      C1512   1.395       .  A
C1508      C1509   1.423       .  A
C1508     Br1519   1.937       .  S
C1509      C1510   1.451       .  A
C1509     Br1515   1.922       .  S
C1510      C1511   1.447       .  A
C1511      C1512   1.409       .  A
C1511     Br1520   1.920       .  S
C1512     Br1516   1.939       .  S
