geometry optimzed in LAMMPS
_audit_creation_date              2020-12-01 
_audit_creation_method            'lammps2cif' 
_symmetry_space_group_name_H-M    'P1' 
_symmetry_Int_Tables_number       1 
_symmetry_cell_setting            triclinic 
loop_ 
_symmetry_equiv_pos_as_xyz 
  x,y,z 
_cell_length_a                    38.95331779 
_cell_length_b                    39.16621316122778 
_cell_length_c                    38.789705941469855 
_cell_angle_alpha                 89.79186170057986 
_cell_angle_beta                  89.62421892780489 
_cell_angle_gamma                 89.04382074280306 
loop_ 
_atom_site_label 
_atom_site_type_symbol 
_atom_site_fract_x 
_atom_site_fract_y 
_atom_site_fract_z 
_atom_site_charge 
C1          C  0.14653562  0.82284212  0.52976339     0.01800
C2          C  0.12947877  0.82125456  0.49720349     0.01800
C3          C  0.14313809  0.83726533  0.46738203     0.01800
C4          C  0.17174064  0.85856661  0.46979693     0.01800
C5          C  0.18228066  0.86809395  0.50329980     0.01800
C6          C  0.17082798  0.84981027  0.53319478     0.01800
C7          C  0.14003953  0.15340147  0.47237892     0.01800
C8          C  0.16484981  0.12689819  0.47577507     0.01800
C9          C  0.17900182  0.11914029  0.50859213     0.01800
C10         C  0.17259705  0.14118383  0.53769632     0.01800
C11         C  0.14309681  0.16380106  0.53518764     0.01800
C12         C  0.12891629  0.17162473  0.50210496     0.01800
C13         C  0.90823409  0.16739858  0.47463340     0.01800
C14         C  0.91848979  0.17662966  0.50852521     0.01800
C15         C  0.90347660  0.15886787  0.53675213     0.01800
C16         C  0.88058029  0.13158804  0.53106258     0.01800
C17         C  0.87160629  0.12211441  0.49753478     0.01800
C18         C  0.88390829  0.14123747  0.46948174     0.01800
C19         C  0.86506688  0.83071542  0.53159040     0.01800
C20         C  0.87457857  0.81978590  0.49764705     0.01800
C21         C  0.85610927  0.83275175  0.46815860     0.01800
C22         C  0.83886333  0.86545574  0.47263519     0.01800
C23         C  0.83391327  0.87907346  0.50628635     0.01800
C24         C  0.84428465  0.86056017  0.53582989     0.01800
C25         C  0.53103692  0.16307192  0.11863991     0.01800
C26         C  0.50043530  0.17120155  0.10059594     0.01800
C27         C  0.46973845  0.15464526  0.10993718     0.01800
C28         C  0.46931214  0.12986771  0.13647206     0.01800
C29         C  0.50057703  0.11773130  0.14985604     0.01800
C30         C  0.53141529  0.13384081  0.14040306     0.01800
C31         C  0.47841644  0.13826959  0.84780866     0.01800
C32         C  0.47502877  0.16797342  0.86897332     0.01800
C33         C  0.50449852  0.18805107  0.87831940     0.01800
C34         C  0.53767414  0.17311738  0.86974946     0.01800
C35         C  0.54043722  0.14414940  0.84785168     0.01800
C36         C  0.51101288  0.12758582  0.83589230     0.01800
C37         C  0.46552564  0.83539688  0.12680908     0.01800
C38         C  0.46378449  0.86230237  0.15224118     0.01800
C39         C  0.49454917  0.87850966  0.16402444     0.01800
C40         C  0.52719208  0.86745208  0.15160548     0.01800
C41         C  0.52826404  0.84630969  0.12220282     0.01800
C42         C  0.49786454  0.83162683  0.10886923     0.01800
C43         C  0.47226802  0.84826928  0.86828739     0.01800
C44         C  0.46996902  0.87727346  0.84591658     0.01800
C45         C  0.49983385  0.89325223  0.83281686     0.01800
C46         C  0.53219661  0.88189124  0.84497310     0.01800
C47         C  0.53465072  0.85232882  0.86678244     0.01800
C48         C  0.50506373  0.83282458  0.87645992     0.01800
C49         C  0.10873503  0.46915556  0.84165530     0.01800
C50         C  0.09139561  0.50092081  0.83794672     0.01800
C51         C  0.10268253  0.52974773  0.85601191     0.01800
C52         C  0.13303428  0.52853324  0.87619507     0.01800
C53         C  0.14816696  0.49591031  0.88386712     0.01800
C54         C  0.13557615  0.46624506  0.86643268     0.01800
C55         C  0.13624538  0.53465093  0.13685989     0.01800
C56         C  0.14945344  0.50508520  0.12002977     0.01800
C57         C  0.13928785  0.47225057  0.13091332     0.01800
C58         C  0.11241951  0.46926151  0.15545135     0.01800
C59         C  0.09817849  0.49856723  0.17165226     0.01800
C60         C  0.11129807  0.53135136  0.16357580     0.01800
C61         C  0.83943990  0.52883752  0.11473599     0.01800
C62         C  0.86142001  0.53130164  0.14430096     0.01800
C63         C  0.87164793  0.50135445  0.16416764     0.01800
C64         C  0.86457038  0.46891043  0.14842313     0.01800
C65         C  0.84355920  0.46725895  0.11845590     0.01800
C66         C  0.82826613  0.49668870  0.10345889     0.01800
C67         C  0.86994927  0.47320439  0.84511721     0.01800
C68         C  0.87741367  0.50347958  0.82491240     0.01800
C69         C  0.86726453  0.53589728  0.83981640     0.01800
C70         C  0.84487647  0.53686944  0.86910710     0.01800
C71         C  0.83318204  0.50609524  0.88454994     0.01800
C72         C  0.84574728  0.47397673  0.87284815     0.01800
O73         O  0.08477007  0.96799897  0.79828733    -0.80600
O74         O  0.15428579  0.03749939  0.91673764    -0.80600
O75         O  0.17139446  0.92895778  0.87429205    -0.80600
O76         O  0.12151068  0.06802198  0.83036020    -0.80600
O77         O  0.15094307  0.96596573  0.91124085    -0.80700
O78         O  0.08962714  0.02274433  0.84260952    -0.80600
O79         O  0.17124117  0.07652212  0.87904873    -0.80600
O80         O  0.11357280  0.94369242  0.84088689    -0.80700
C81         C  0.08800568  0.94379196  0.82015726     1.09100
C82         C  0.15967503  0.06852388  0.90868714     1.09000
C83         C  0.15876931  0.93541156  0.90398940     1.09100
C84         C  0.09239538  0.05473677  0.83777947     1.09000
O85         O  0.12114059  0.02832639  0.77722522    -0.80600
O86         O  0.22074688  0.96641673  0.87929911    -0.80700
O87         O  0.16772923  0.91858090  0.80342044    -0.80600
O88         O  0.22228918  0.04421520  0.83510364    -0.80600
O89         O  0.22361458  0.03400682  0.89068260    -0.80700
O90         O  0.15281773  0.96772356  0.78001510    -0.80600
O91         O  0.17507220  0.03670254  0.78572840    -0.80600
O92         O  0.21111807  0.96835153  0.82348136    -0.80700
Co93       Co  0.12225123  0.99354128  0.81643097     1.51500
Co94       Co  0.18469769  0.00092646  0.89682620     1.51700
Co95       Co  0.16325888  0.95860049  0.83198702     1.51600
Co96       Co  0.17202188  0.05349185  0.83298493     1.51500
O97         O  0.16031217  0.00656828  0.84998188    -1.42500
C98         C  0.14929800  0.04077920  0.76691821     1.09000
C99         C  0.23111219  0.96294839  0.84807199     1.09100
C100        C  0.16463408  0.93699185  0.77665122     1.09000
C101        C  0.23890080  0.04215904  0.86296389     1.09000
O102        O  0.03383324  0.07048243  0.82239971    -0.80600
O103        O  0.97878568  0.15773106  0.92881756    -0.80600
O104        O  0.08295477  0.16701688  0.87722214    -0.80600
O105        O  0.93710773  0.12390204  0.84560700    -0.80600
O106        O  0.04684350  0.14873421  0.91573247    -0.80700
O107        O  0.97766776  0.08848038  0.86441329    -0.80600
O108        O  0.93705460  0.17494224  0.89382627    -0.80600
O109        O  0.06574658  0.10801894  0.85020048    -0.80700
C110        C  0.06192773  0.07794641  0.83734693     1.09100
C111        C  0.94776909  0.16552597  0.92338177     1.09000
C112        C  0.07694194  0.15603392  0.90747992     1.09100
C113        C  0.94646061  0.09407935  0.85590288     1.09000
O114        O  0.97853216  0.11496383  0.79513038    -0.80600
O115        O  0.04663457  0.21788180  0.88317099    -0.80700
O116        O  0.08844171  0.15786908  0.80596909    -0.80600
O117        O  0.96932271  0.22003012  0.84433283    -0.80600
O118        O  0.97982851  0.22445357  0.89921441    -0.80700
O119        O  0.04010161  0.13254529  0.79297357    -0.80600
O120        O  0.97166060  0.17056577  0.79853355    -0.80600
O121        O  0.04271826  0.20673226  0.82788693    -0.80700
Co122      Co  0.01199325  0.11303985  0.83503654     1.51500
Co123      Co  0.01300587  0.18450574  0.90460624     1.51700
Co124      Co  0.05066279  0.15813118  0.83804614     1.51600
Co125      Co  0.95651566  0.17175816  0.84599426     1.51500
O126        O  0.00395048  0.15789365  0.86026825    -1.42500
C127        C  0.97052274  0.14363606  0.78144256     1.09000
C128        C  0.04779571  0.22789043  0.85179371     1.09100
C129        C  0.06870688  0.14578278  0.78330511     1.09000
C130        C  0.97173438  0.23829771  0.87075856     1.09000
O131        O  0.03232286  0.91154316  0.14978243    -0.80600
O132        O  0.96150889  0.85808106  0.08937849    -0.80600
O133        O  0.06929133  0.82892627  0.12388674    -0.80600
O134        O  0.92239865  0.87876800  0.17336807    -0.80600
O135        O  0.03337320  0.85577180  0.09007689    -0.80700
O136        O  0.95963916  0.91271813  0.14930704    -0.80600
O137        O  0.92318891  0.83418687  0.12296866    -0.80600
O138        O  0.06900754  0.87546344  0.17344685    -0.80700
C139        C  0.06261131  0.90421228  0.15950090     1.09100
C140        C  0.93079444  0.84960036  0.09512520     1.09000
C141        C  0.06349730  0.84485348  0.09566703     1.09100
C142        C  0.92939914  0.90732155  0.15974236     1.09000
O143        O  0.96095716  0.88575258  0.22093558    -0.80600
O144        O  0.02944003  0.78316662  0.11442640    -0.80700
O145        O  0.02909671  0.83093348  0.21883149    -0.80600
O146        O  0.95973636  0.78493235  0.16699119    -0.80600
O147        O  0.96160015  0.78615901  0.11121553    -0.80700
O148        O  0.02868429  0.88613384  0.22025531    -0.80600
O149        O  0.96078401  0.83036595  0.21685580    -0.80600
O150        O  0.02603471  0.78633873  0.16991108    -0.80700
Co151      Co  0.99535854  0.89558362  0.18132042     1.51500
Co152      Co  0.99656639  0.82426299  0.10505650     1.51700
Co153      Co  0.04425213  0.83103234  0.17076644     1.51600
Co154      Co  0.94597145  0.83262106  0.16944719     1.51500
O155        O  0.99555110  0.84744401  0.15528495    -1.42500
C156        C  0.95462350  0.85660676  0.23416465     1.09000
C157        C  0.03250763  0.76896959  0.14392081     1.09100
C158        C  0.03196468  0.85780267  0.23584111     1.09000
C159        C  0.95612557  0.76974547  0.13899606     1.09000
O160        O  0.16713987  0.87672355  0.07113826    -0.80600
O161        O  0.11786014  0.83845878  0.92560094    -0.80600
O162        O  0.14792629  0.91462211  0.96153087    -0.80600
O163        O  0.08442578  0.85731651  0.03784202    -0.80600
O164        O  0.17090557  0.87928355  0.92421095    -0.80700
O165        O  0.11896145  0.82968444  0.07265543    -0.80600
O166        O  0.08256481  0.86108916  0.96410712    -0.80600
O167        O  0.14602794  0.91384706  0.03414421    -0.80700
C168        C  0.15371169  0.90596782  0.06481636     1.09100
C169        C  0.08938911  0.85315451  0.93307070     1.09000
C170        C  0.15769951  0.90829097  0.93095478     1.09100
C171        C  0.09060388  0.84547879  0.06773525     1.09000
O172        O  0.16354206  0.78481918  0.02936024    -0.80600
O173        O  0.21208010  0.82860772  0.96183721    -0.80700
O174        O  0.21680245  0.88373030  0.03331818    -0.80600
O175        O  0.10396432  0.78944799  0.96194948    -0.80600
O176        O  0.15954609  0.78645534  0.96127952    -0.80700
O177        O  0.21142391  0.82916138  0.03003427    -0.80600
O178        O  0.10780296  0.78566330  0.03068220    -0.80600
O179        O  0.21758427  0.88361531  0.96501961    -0.80700
Co180      Co  0.16461382  0.83109418  0.04650000     1.51500
Co181      Co  0.16435434  0.83380921  0.94785671     1.51700
Co182      Co  0.17811699  0.89550946  0.99848347     1.51600
Co183      Co  0.09889950  0.82687905  0.99872273     1.51500
O184        O  0.14979492  0.84863245  0.99783733    -1.42500
C185        C  0.13620734  0.76944491  0.03409156     1.09000
C186        C  0.23101524  0.85413108  0.95992077     1.09100
C187        C  0.22968298  0.85383188  0.03718575     1.09000
C188        C  0.13147571  0.77315054  0.95442886     1.09000
O189        O  0.07173414  0.11869952  0.16891701    -0.80600
O190        O  0.93001185  0.16377205  0.11769884    -0.80600
O191        O  0.96176688  0.08807527  0.14739019    -0.80600
O192        O  0.03989556  0.14156149  0.08791164    -0.80600
O193        O  0.92601670  0.12372558  0.17196698    -0.80700
O194        O  0.07430054  0.16769844  0.12273810    -0.80600
O195        O  0.96856384  0.14042731  0.08311832    -0.80600
O196        O  0.03386253  0.08412830  0.14661499    -0.80700
C197        C  0.06437143  0.09015401  0.15561643     1.09100
C198        C  0.93767585  0.14845245  0.08969975     1.09000
C199        C  0.93172659  0.09502538  0.15789073     1.09100
C200        C  0.06941753  0.15229880  0.09450720     1.09000
O201        O  0.03342177  0.21188937  0.16839707    -0.80600
O202        O  0.96575559  0.17282514  0.21090811    -0.80700
O203        O  0.03363990  0.10925505  0.21728323    -0.80600
O204        O  0.96571055  0.21245923  0.10408032    -0.80600
O205        O  0.96649263  0.21424747  0.15940018    -0.80700
O206        O  0.03435026  0.16433251  0.21645699    -0.80600
O207        O  0.03388998  0.21378404  0.11196654    -0.80600
O208        O  0.96672178  0.11776657  0.21855487    -0.80700
Co209      Co  0.04905314  0.16506256  0.16831068     1.51500
Co210      Co  0.95121328  0.16791450  0.16447065     1.51700
Co211      Co  0.99881219  0.10318825  0.17858966     1.51600
Co212      Co  0.00213586  0.17368642  0.10079070     1.51500
O213        O  0.00042045  0.15088025  0.15159830    -1.42500
C214        C  0.03735169  0.22838222  0.14112287     1.09000
C215        C  0.96440540  0.14794382  0.23092865     1.09100
C216        C  0.03858303  0.13707317  0.23299609     1.09000
C217        C  0.95861053  0.22835953  0.13173590     1.09000
O218        O  0.11878963  0.92200086  0.17269829    -0.80600
O219        O  0.16870225  0.07210697  0.12414022    -0.80600
O220        O  0.08334614  0.03218363  0.15169870    -0.80600
O221        O  0.14501753  0.96297509  0.08771032    -0.80600
O222        O  0.11935369  0.07064639  0.17143603    -0.80700
O223        O  0.16349729  0.92299485  0.12249959    -0.80600
O224        O  0.14722838  0.03567746  0.08709818    -0.80600
O225        O  0.08469247  0.96088805  0.15195482    -0.80700
C226        C  0.08992460  0.93000385  0.16034883     1.09100
C227        C  0.15622291  0.06578479  0.09454058     1.09000
C228        C  0.09071509  0.06295243  0.15782675     1.09100
C229        C  0.15272219  0.93171959  0.09299650     1.09000
O230        O  0.20313988  0.94818407  0.17509948    -0.80600
O231        O  0.16607172  0.03333641  0.21906246    -0.80700
O232        O  0.11966235  0.96374393  0.22256316    -0.80600
O233        O  0.21592556  0.03125422  0.11476377    -0.80600
O234        O  0.21468244  0.03263442  0.17068486    -0.80700
O235        O  0.17250562  0.94953930  0.20964512    -0.80600
O236        O  0.21378068  0.96359343  0.12186017    -0.80600
O237        O  0.11051876  0.03189528  0.22091402    -0.80700
Co238      Co  0.15745578  0.95323739  0.16350086     1.51500
Co239      Co  0.16643411  0.04849870  0.17078983     1.51700
Co240      Co  0.10305616  0.99730840  0.18310130     1.51600
Co241      Co  0.17668453  0.99846794  0.10655010     1.51500
O242        O  0.14935775  0.00210769  0.15416276    -1.42500
C243        C  0.22367561  0.95227333  0.15135388     1.09000
C244        C  0.13873102  0.03687333  0.23588773     1.09100
C245        C  0.14953624  0.95222777  0.23156608     1.09000
C246        C  0.23111350  0.03619526  0.14305933     1.09000
O247        O  0.14846927  0.08810851  0.03717261    -0.80600
O248        O  0.09590219  0.14721819  0.96455978    -0.80600
O249        O  0.12480288  0.16738979  0.07587093    -0.80600
O250        O  0.17297808  0.12392975  0.92855571    -0.80600
O251        O  0.09149806  0.14491828  0.03692013    -0.80700
O252        O  0.14785746  0.08966908  0.96527341    -0.80600
O253        O  0.12935942  0.17453267  0.92884542    -0.80600
O254        O  0.17386197  0.12020708  0.07502722    -0.80700
C255        C  0.15806072  0.09302638  0.06781380     1.09100
C256        C  0.10252697  0.15784182  0.93448030     1.09000
C257        C  0.09691431  0.15309337  0.06797451     1.09100
C258        C  0.15818568  0.09577029  0.93505332     1.09000
O259        O  0.22035524  0.11149762  0.96543463    -0.80600
O260        O  0.11429140  0.21581586  0.03807828    -0.80700
O261        O  0.21843982  0.16717423  0.03791887    -0.80600
O262        O  0.17479465  0.21570771  0.97114505    -0.80600
O263        O  0.11903270  0.21873668  0.96987082    -0.80700
O264        O  0.21965079  0.11175053  0.03353711    -0.80600
O265        O  0.21957874  0.16633961  0.96976514    -0.80600
O266        O  0.16991220  0.21496023  0.03993063    -0.80700
Co267      Co  0.18071137  0.10378855  0.00061217     1.51500
Co268      Co  0.10843624  0.17828519  0.00220839     1.51700
Co269      Co  0.17131183  0.16693526  0.05286693     1.51600
Co270      Co  0.17364078  0.16955406  0.95384641     1.51500
O271        O  0.15736231  0.15358723  0.00258372    -1.42500
C272        C  0.23479384  0.14001794  0.96001931     1.09000
C273        C  0.14212485  0.23089368  0.04462814     1.09100
C274        C  0.23528646  0.13984767  0.03537180     1.09000
C275        C  0.14810819  0.23280960  0.96577650     1.09000
O276        O  0.87516889  0.07639194  0.17183940    -0.80600
O277        O  0.84276340  0.94065586  0.11757800    -0.80600
O278        O  0.91092278  0.96553136  0.15375298    -0.80600
O279        O  0.84931754  0.02944119  0.09202138    -0.80600
O280        O  0.87436620  0.92934332  0.17576358    -0.80700
O281        O  0.82518859  0.06931109  0.12489634    -0.80600
O282        O  0.81343223  0.96954502  0.07741406    -0.80600
O283        O  0.91277261  0.03759779  0.15283695    -0.80700
C284        C  0.90481880  0.06851782  0.15931904     1.09100
C285        C  0.83137005  0.94345369  0.08657592     1.09000
C286        C  0.90343331  0.93521502  0.16197059     1.09100
C287        C  0.83901191  0.06037824  0.09659536     1.09000
O288        O  0.78320386  0.03294273  0.17364741    -0.80600
O289        O  0.82499407  0.96763141  0.21656767    -0.80700
O290        O  0.88666607  0.03865551  0.22229827    -0.80600
O291        O  0.78456013  0.96285569  0.14152300    -0.80600
O292        O  0.80311815  0.91838761  0.17167463    -0.80700
O293        O  0.83066572  0.03986806  0.22118497    -0.80600
O294        O  0.78089507  0.02280045  0.11820141    -0.80600
O295        O  0.88112291  0.97031788  0.22380957    -0.80700
Co296      Co  0.82921156  0.05177499  0.17279884     1.51500
Co297      Co  0.83181863  0.95788039  0.16738625     1.51700
Co298      Co  0.89560369  0.00276158  0.18557084     1.51600
Co299      Co  0.82368419  0.99342754  0.11863471     1.51500
O300        O  0.84877834  0.00540150  0.16180760    -1.42500
C301        C  0.76609636  0.03102144  0.14637330     1.09000
C302        C  0.85091793  0.96638453  0.23620140     1.09100
C303        C  0.85794144  0.04565495  0.23652655     1.09000
C304        C  0.77822843  0.93489387  0.15818670     1.09000
O305        O  0.82782053  0.11705828  0.07758427    -0.80600
O306        O  0.89432162  0.15442806  0.94817134    -0.80600
O307        O  0.85010659  0.08763776  0.96793936    -0.80600
O308        O  0.91460378  0.14106984  0.03188905    -0.80600
O309        O  0.83581791  0.12734046  0.93066490    -0.80700
O310        O  0.88129273  0.15926821  0.07492499    -0.80600
O311        O  0.93067706  0.18544614  0.97850936    -0.80600
O312        O  0.84419517  0.07987243  0.03801179    -0.80700
C313        C  0.83846329  0.08708724  0.06922205     1.09100
C314        C  0.92381853  0.16809482  0.95187369     1.09000
C315        C  0.84596710  0.09680953  0.93709210     1.09100
C316        C  0.90983637  0.14722203  0.06397989     1.09000
O317        O  0.83928566  0.21206273  0.04337785    -0.80600
O318        O  0.79598420  0.17947243  0.96931899    -0.80700
O319        O  0.77783739  0.11636973  0.03679337    -0.80600
O320        O  0.86602280  0.21520149  0.97300745    -0.80600
O321        O  0.84508990  0.19854850  0.92315376    -0.80700
O322        O  0.78774906  0.17061172  0.04149354    -0.80600
O323        O  0.89438414  0.20972117  0.03453327    -0.80600
O324        O  0.78332501  0.12497914  0.96720197    -0.80700
Co325      Co  0.83417624  0.16416175  0.05658420     1.51500
Co326      Co  0.84467056  0.16776109  0.96201386     1.51700
Co327      Co  0.81648454  0.10440816  0.00261354     1.51600
Co328      Co  0.88904358  0.17271516  0.99983346     1.51500
O329        O  0.84535183  0.14751595  0.00935009    -1.42500
C330        C  0.86804116  0.22599447  0.04455877     1.09000
C331        C  0.77483661  0.15637422  0.96294886     1.09100
C332        C  0.76772437  0.14643498  0.04496850     1.09000
C333        C  0.85310839  0.22277716  0.94308546     1.09000
O334        O  0.07375739  0.88499876  0.81767661    -0.80600
O335        O  0.93582659  0.85116148  0.87991001    -0.80600
O336        O  0.96347524  0.91474185  0.83357078    -0.80600
O337        O  0.03129855  0.85556523  0.91233957    -0.80600
O338        O  0.92642156  0.87505525  0.82163098    -0.80700
O339        O  0.07317784  0.84484680  0.87540751    -0.80600
O340        O  0.96854769  0.83349120  0.92092924    -0.80600
O341        O  0.03201219  0.92291964  0.82643304    -0.80700
C342        C  0.06334285  0.91581616  0.82222105     1.09100
C343        C  0.93986937  0.84376566  0.91140175     1.09000
C344        C  0.93280260  0.90565757  0.83082984     1.09100
C345        C  0.06306639  0.85339490  0.90550368     1.09000
O346        O  0.04100264  0.78991916  0.83646439    -0.80600
O347        O  0.97128079  0.82037520  0.78806350    -0.80700
O348        O  0.03341011  0.88148405  0.76492706    -0.80600
O349        O  0.97061284  0.78703855  0.86558700    -0.80600
O350        O  0.92414544  0.80267937  0.83469130    -0.80700
O351        O  0.04055127  0.82872355  0.78073291    -0.80600
O352        O  0.03250965  0.79123273  0.89177805    -0.80600
O353        O  0.96410513  0.87301948  0.77088693    -0.80700
Co354      Co  0.05317927  0.83847073  0.82810732     1.51500
Co355      Co  0.95869207  0.83539951  0.83497828     1.51700
Co356      Co  0.99832896  0.89594391  0.80206958     1.51600
Co357      Co  0.00017397  0.82889573  0.88272012     1.51500
O358        O  0.00430882  0.85745943  0.83865032    -1.42500
C359        C  0.04164784  0.77505807  0.86544928     1.09000
C360        C  0.96262284  0.84121519  0.76482121     1.09100
C361        C  0.04316700  0.85112096  0.75789483     1.09000
C362        C  0.94268489  0.77948594  0.84879001     1.09000
O363        O  0.92777501  0.03425715  0.85517564    -0.80600
O364        O  0.86358321  0.97059376  0.91663791    -0.80600
O365        O  0.83719820  0.07831407  0.87993275    -0.80600
O366        O  0.87590725  0.92944164  0.82423356    -0.80600
O367        O  0.85815294  0.04039639  0.91619006    -0.80700
O368        O  0.91502644  0.96063717  0.84942843    -0.80600
O369        O  0.84637740  0.93467536  0.87973764    -0.80600
O370        O  0.89179831  0.07566488  0.83828104    -0.80700
C371        C  0.92063624  0.06616483  0.85127575     1.09100
C372        C  0.85828294  0.94029777  0.90885178     1.09000
C373        C  0.84870897  0.07086819  0.90950071     1.09100
C374        C  0.90616387  0.93238476  0.83616203     1.09000
O375        O  0.88676310  0.97397811  0.78113355    -0.80600
O376        O  0.79190003  0.03580993  0.88469974    -0.80700
O377        O  0.84791169  0.04263292  0.78626963    -0.80600
O378        O  0.80122316  0.93166656  0.83288233    -0.80600
O379        O  0.79317251  0.96887384  0.87644978    -0.80700
O380        O  0.90300651  0.04036571  0.78640083    -0.80600
O381        O  0.83071401  0.97803491  0.78969828    -0.80600
O382        O  0.79688241  0.04041466  0.82931195    -0.80700
Co383      Co  0.90568896  0.00213741  0.82147853     1.51500
Co384      Co  0.83066701  0.00357207  0.89526778     1.51700
Co385      Co  0.84432834  0.05544478  0.83402103     1.51600
Co386      Co  0.83726991  0.96258632  0.83700424     1.51500
O387        O  0.85941926  0.00705697  0.84895344    -1.42500
C388        C  0.85593086  0.97149137  0.76993566     1.09000
C389        C  0.77833760  0.04123839  0.85574675     1.09100
C390        C  0.87545353  0.04579668  0.77026120     1.09000
C391        C  0.78150908  0.94547154  0.85557961     1.09000
O392        O  0.85334428  0.91811239  0.03528100    -0.80600
O393        O  0.91476674  0.85457576  0.96604608    -0.80600
O394        O  0.87507090  0.83913899  0.07466766    -0.80600
O395        O  0.84316033  0.88450569  0.92583458    -0.80600
O396        O  0.91294387  0.85741676  0.03678981    -0.80700
O397        O  0.86396599  0.91754632  0.96561738    -0.80600
O398        O  0.88304171  0.82989370  0.92812334    -0.80600
O399        O  0.82398334  0.88614417  0.07034800    -0.80700
C400        C  0.83773259  0.91446989  0.06336723     1.09100
C401        C  0.91081043  0.84432200  0.93580583     1.09000
C402        C  0.90463782  0.85087487  0.06768493     1.09100
C403        C  0.85775852  0.91212505  0.93436433     1.09000
O404        O  0.79112443  0.89907863  0.95713442    -0.80600
O405        O  0.88799679  0.78839919  0.03836997    -0.80700
O406        O  0.78405399  0.83920774  0.03052103    -0.80600
O407        O  0.82789600  0.79358148  0.96664001    -0.80600
O408        O  0.88274061  0.78409604  0.96982617    -0.80700
O409        O  0.78241422  0.89491609  0.02461290    -0.80600
O410        O  0.78928863  0.84484787  0.96251472    -0.80600
O411        O  0.83241001  0.79012588  0.03876865    -0.80700
Co412      Co  0.82615895  0.90332758  0.99617458     1.51500
Co413      Co  0.89612095  0.82470979  0.00216449     1.51700
Co414      Co  0.83005789  0.83926675  0.04911896     1.51600
Co415      Co  0.83630671  0.83878800  0.94984655     1.51500
O416        O  0.84863339  0.85269489  0.99989767    -1.42500
C417        C  0.77503631  0.87164804  0.95298336     1.09000
C418        C  0.85992929  0.77338402  0.04273497     1.09100
C419        C  0.76702106  0.86669197  0.02914155     1.09000
C420        C  0.85224439  0.77304677  0.96469583     1.09000
C421        C  0.88342524  0.56944785  0.82961050    -0.20400
C422        C  0.86395488  0.59700278  0.81517937     0.35900
C423        C  0.87825613  0.62963013  0.81269268    -0.26300
C424        C  0.91102251  0.63647657  0.82560667     0.02300
C425        C  0.93126952  0.60887070  0.83814415     0.27100
C426        C  0.91743942  0.57571383  0.83968750    -0.25500
N427        N  0.82996517  0.59261791  0.80188282    -0.82800
H428        H  0.86252641  0.65041172  0.80263856     0.12900
C429        C  0.92154704  0.67299447  0.83010010     0.02300
N430        N  0.96543689  0.61484626  0.85024980    -0.81400
H431        H  0.93245229  0.55503297  0.85091199     0.17700
C432        C  0.92894368  0.68465262  0.86347827    -0.26300
C433        C  0.93550292  0.71928026  0.87024218     0.35800
C434        C  0.93410907  0.74314222  0.84315203    -0.20300
C435        C  0.92604455  0.73191404  0.80974490    -0.25500
C436        C  0.92010751  0.69708121  0.80288029     0.27100
H437        H  0.92782862  0.66672731  0.88470683     0.12900
N438        N  0.94305698  0.73040898  0.90463260    -0.82800
H439        H  0.92520651  0.75028093  0.78877383     0.17800
N440        N  0.91266587  0.68608591  0.76845501    -0.81400
H441        H  0.94078074  0.71022970  0.92215224     0.33400
H442        H  0.92483917  0.74888521  0.91194921     0.37900
H443        H  0.91251401  0.70685067  0.75142939     0.33400
H444        H  0.93269841  0.66976401  0.76055490     0.30000
H445        H  0.97696423  0.59207358  0.85878365     0.33400
H446        H  0.98001016  0.62326969  0.82924303     0.30000
H447        H  0.82175509  0.56755482  0.80489049     0.37900
H448        H  0.81320757  0.60842467  0.81592768     0.33400
C449        C  0.83758411  0.57068217  0.88643102    -0.20400
C450        C  0.80519341  0.58788610  0.88583139     0.35900
C451        C  0.80203839  0.62089618  0.90012742    -0.26300
C452        C  0.83024773  0.63684131  0.91525192     0.02300
C453        C  0.86174360  0.61860416  0.91797626     0.27100
C454        C  0.86503505  0.58640212  0.90301752    -0.25500
N455        N  0.77538410  0.57317494  0.87047359    -0.82800
H456        H  0.77774652  0.63464968  0.89833729     0.12900
C457        C  0.82829214  0.67344418  0.92501173     0.02300
N458        N  0.89126064  0.63212426  0.93504964    -0.81400
H459        H  0.88970023  0.57331015  0.90441133     0.17700
C460        C  0.81465549  0.68333028  0.95679800    -0.26300
C461        C  0.81928818  0.71661288  0.96904521     0.35800
C462        C  0.84380632  0.73816204  0.95233610    -0.20300
C463        C  0.85402271  0.72927573  0.91878722    -0.25500
C464        C  0.84425296  0.69807955  0.90425848     0.27100
H465        H  0.79956615  0.66545987  0.97168045     0.12900
N466        N  0.79688415  0.72779024  0.99648035    -0.82800
H467        H  0.86719511  0.74780247  0.90297557     0.17800
N468        N  0.84815094  0.69200954  0.86807343    -0.81400
H469        H  0.80139972  0.71259151  0.01826062     0.33400
H470        H  0.80030068  0.75301874  0.00300275     0.37900
H471        H  0.86074663  0.71217822  0.85608056     0.33400
H472        H  0.86324029  0.67003041  0.86530038     0.30000
H473        H  0.89721518  0.61578912  0.95562275     0.33400
H474        H  0.88618967  0.65597412  0.94595674     0.30000
H475        H  0.78119216  0.54962876  0.85920458     0.37900
H476        H  0.76716698  0.58929137  0.85052907     0.33400
C477        C  0.89236009  0.44187326  0.84435433    -0.20400
C478        C  0.88215867  0.41142303  0.82806356     0.35900
C479        C  0.90154033  0.38158365  0.83300870    -0.26300
C480        C  0.92832737  0.37967378  0.85709186     0.02300
C481        C  0.93798548  0.40972490  0.87432262     0.27100
C482        C  0.92100145  0.44082009  0.86630373    -0.25500
N483        N  0.85375523  0.41041588  0.80455455    -0.82800
H484        H  0.89466906  0.35921312  0.81848050     0.12900
C485        C  0.94537693  0.34571595  0.86269930     0.02300
N486        N  0.96349974  0.40851189  0.90099847    -0.81400
H487        H  0.92812885  0.46393021  0.87957692     0.17700
C488        C  0.95598396  0.32718732  0.83353551    -0.26300
C489        C  0.96520363  0.29258718  0.83572107     0.35800
C490        C  0.96483199  0.27571475  0.86802336    -0.20300
C491        C  0.95636040  0.29473750  0.89763503    -0.25500
C492        C  0.94605162  0.32930154  0.89518639     0.27100
H493        H  0.95543335  0.33928621  0.80836567     0.12900
N494        N  0.97417816  0.27464500  0.80473329    -0.82800
H495        H  0.95588361  0.28230975  0.92263162     0.17800
N496        N  0.93401007  0.34670958  0.92539738    -0.81400
H497        H  0.95316312  0.27606007  0.78812703     0.33400
H498        H  0.99452716  0.28728030  0.79285969     0.37900
H499        H  0.95382512  0.34632304  0.94345054     0.33400
H500        H  0.91363715  0.33286942  0.93570361     0.30000
H501        H  0.96789709  0.43296217  0.91055678     0.33400
H502        H  0.98672237  0.39950519  0.89075341     0.30000
H503        H  0.84099842  0.43401189  0.80290508     0.37900
H504        H  0.83613935  0.39276541  0.81389055     0.33400
C505        C  0.83664489  0.44037535  0.89076816    -0.20400
C506        C  0.85658822  0.42671322  0.91806877     0.35900
C507        C  0.85522214  0.39145504  0.92645571    -0.26300
C508        C  0.83394890  0.36889956  0.90847973     0.02300
C509        C  0.81099697  0.38352413  0.88406827     0.27100
C510        C  0.81263924  0.41866371  0.87550705    -0.25500
N511        N  0.87904059  0.44836535  0.93680836    -0.82800
H512        H  0.87185664  0.38154429  0.94644800     0.12900
C513        C  0.83613631  0.33067611  0.91572249     0.02300
N514        N  0.78561954  0.36334988  0.86756935    -0.81400
H515        H  0.79634127  0.42865734  0.85518913     0.17700
C516        C  0.82398023  0.31739385  0.94719423    -0.26300
C517        C  0.82801248  0.28227350  0.95576306     0.35800
C518        C  0.84589614  0.25960760  0.93335801    -0.20300
C519        C  0.85598832  0.27231281  0.90102090    -0.25500
C520        C  0.85091985  0.30714091  0.89195431     0.27100
H521        H  0.81112104  0.33438571  0.96528729     0.12900
N522        N  0.81191720  0.26929436  0.98627869    -0.82800
H523        H  0.86842787  0.25521449  0.88273312     0.17800
N524        N  0.86096924  0.31827478  0.85836161    -0.81400
H525        H  0.78541533  0.27292705  0.98365050     0.33400
H526        H  0.81940118  0.28411081  0.00711997     0.37900
H527        H  0.84653196  0.30491588  0.84040538     0.33400
H528        H  0.88652248  0.31071243  0.85463261     0.30000
H529        H  0.79789847  0.34391602  0.85362293     0.33400
H530        H  0.77044831  0.35215698  0.88670376     0.30000
H531        H  0.87152142  0.44792068  0.96271250     0.37900
H532        H  0.90383983  0.43788867  0.93556673     0.33400
C533        C  0.87901056  0.56467458  0.14809022    -0.20400
C534        C  0.86171771  0.59464346  0.15973778     0.35900
C535        C  0.87820016  0.62601402  0.15718202    -0.26300
C536        C  0.91021055  0.62925942  0.14061208     0.02300
C537        C  0.92682244  0.59959425  0.12761240     0.27100
C538        C  0.91152734  0.56767689  0.13268642    -0.25500
N539        N  0.82847178  0.59400687  0.17612235    -0.82800
H540        H  0.86540233  0.64835507  0.16783581     0.12900
C541        C  0.92569560  0.66391701  0.13926468     0.02300
N542        N  0.95763192  0.60183444  0.10718289    -0.81400
H543        H  0.92381057  0.54506433  0.12210710     0.17700
C544        C  0.92691232  0.68244456  0.17004552    -0.26300
C545        C  0.93653801  0.71665901  0.17046553     0.35800
C546        C  0.94575210  0.73330649  0.13933265    -0.20300
C547        C  0.94541534  0.71460229  0.10854102    -0.25500
C548        C  0.93593760  0.68003195  0.10819542     0.27100
H549        H  0.91953633  0.67038966  0.19412776     0.12900
N550        N  0.93606962  0.73442790  0.20271617    -0.82800
H551        H  0.95280998  0.72689187  0.08462488     0.17800
N552        N  0.93697677  0.66145128  0.07642163    -0.81400
H553        H  0.95270478  0.72160262  0.21960018     0.33400
H554        H  0.91122982  0.73340368  0.21301788     0.37900
H555        H  0.94304923  0.67734500  0.05575744     0.33400
H556        H  0.91242343  0.65219899  0.07215797     0.30000
H557        H  0.96854046  0.57764523  0.10301126     0.33400
H558        H  0.97557875  0.61622220  0.12025607     0.30000
H559        H  0.81794451  0.56970501  0.17536048     0.37900
H560        H  0.81191076  0.61044760  0.16264999     0.33400
C561        C  0.83412782  0.55974854  0.09198125    -0.20400
C562        C  0.85930228  0.56913727  0.06752922     0.35900
C563        C  0.86178040  0.60340553  0.05726539    -0.26300
C564        C  0.83743573  0.62838324  0.06816761     0.02300
C565        C  0.80765370  0.61642737  0.08518276     0.27100
C566        C  0.80736745  0.58313456  0.09887665    -0.25500
N567        N  0.88306969  0.54460160  0.05330265    -0.82800
H568        H  0.88366609  0.61017564  0.04159155     0.12900
C569        C  0.84399627  0.66608048  0.06254435     0.02300
N570        N  0.77736303  0.63748392  0.08802080    -0.81400
H571        H  0.78699947  0.57645364  0.11652569     0.17700
C572        C  0.86391312  0.67691390  0.03407414    -0.26300
C573        C  0.87388114  0.71121329  0.03025688     0.35800
C574        C  0.85879457  0.73647418  0.05157633    -0.20300
C575        C  0.83927230  0.72615225  0.07997886    -0.25500
C576        C  0.83399565  0.69139075  0.08702761     0.27100
H577        H  0.87279065  0.65860653  0.01509168     0.12900
N578        N  0.89840988  0.72044870  0.00419911    -0.82800
H579        H  0.82905035  0.74522967  0.09761496     0.17800
N580        N  0.82013101  0.68228777  0.11997550    -0.81400
H581        H  0.90669142  0.69893604  0.99039145     0.33400
H582        H  0.91999676  0.72972766  0.01673509     0.37900
H583        H  0.79629615  0.69468808  0.12277323     0.33400
H584        H  0.83624989  0.69206007  0.13883900     0.30000
H585        H  0.77006887  0.63851926  0.11399550     0.33400
H586        H  0.75770740  0.62534680  0.07483062     0.30000
H587        H  0.86898610  0.52611624  0.04050645     0.37900
H588        H  0.89641610  0.53246692  0.07316953     0.33400
C589        C  0.94046990  0.26201080  0.13347531    -0.20400
C590        C  0.91906720  0.26975154  0.16217694     0.35900
C591        C  0.90804483  0.30355093  0.16811305    -0.26300
C592        C  0.91644578  0.33011879  0.14537919     0.02300
C593        C  0.93708703  0.32192031  0.11602250     0.27100
C594        C  0.94856562  0.28808902  0.11028981    -0.25500
N595        N  0.90921316  0.24320457  0.18582347    -0.82800
H596        H  0.89379305  0.30917211  0.19148076     0.12900
C597        C  0.90451284  0.36609480  0.15332855     0.02300
N598        N  0.94741981  0.34782731  0.09222016    -0.81400
H599        H  0.96541967  0.28260972  0.08859822     0.17700
C600        C  0.92719592  0.39320444  0.14850998    -0.26300
C601        C  0.91573378  0.42735167  0.14988592     0.35800
C602        C  0.88129986  0.43530187  0.15864999    -0.20300
C603        C  0.86015036  0.40844159  0.16915916    -0.25500
C604        C  0.87087082  0.37412571  0.16552892     0.27100
H605        H  0.95388545  0.38805016  0.14220646     0.12900
N606        N  0.93911533  0.45371276  0.14126186    -0.82800
H607        H  0.83373160  0.41404480  0.17638456     0.17800
N608        N  0.84659828  0.34788809  0.17243973    -0.81400
H609        H  0.95988762  0.45082692  0.15794285     0.33400
H610        H  0.94882455  0.44911666  0.11652691     0.37900
H611        H  0.83926812  0.34974482  0.19835109     0.33400
H612        H  0.82472800  0.35287111  0.15767644     0.30000
H613        H  0.97422362  0.34886895  0.09262706     0.33400
H614        H  0.94046106  0.34011319  0.06752570     0.30000
H615        H  0.89428023  0.22595017  0.17222603     0.37900
H616        H  0.89364952  0.25301714  0.20562456     0.33400
C617        C  0.84390892  0.43468665  0.09894667    -0.20400
C618        C  0.87366522  0.42444945  0.08027138     0.35900
C619        C  0.87660503  0.39116244  0.06865296    -0.26300
C620        C  0.84970777  0.36822820  0.07261666     0.02300
C621        C  0.81795042  0.38011154  0.08652289     0.27100
C622        C  0.81568272  0.41309717  0.10054376    -0.25500
N623        N  0.90127839  0.44724751  0.07252194    -0.82800
H624        H  0.90080242  0.38333750  0.05736492     0.12900
C625        C  0.85653915  0.33151551  0.06552030     0.02300
N626        N  0.78852730  0.35845079  0.08701673    -0.81400
H627        H  0.79239106  0.42170951  0.11348028     0.17700
C628        C  0.84534203  0.30727092  0.08965409    -0.26300
C629        C  0.85097832  0.27249507  0.08430413     0.35800
C630        C  0.86950220  0.26155254  0.05513234    -0.20300
C631        C  0.88333676  0.28545956  0.03237098    -0.25500
C632        C  0.87606628  0.32031919  0.03666102     0.27100
H633        H  0.83159990  0.31509120  0.11261591     0.12900
N634        N  0.83731488  0.24820127  0.10822999    -0.82800
H635        H  0.89695845  0.27692761  0.00942410     0.17800
N636        N  0.88696163  0.34385349  0.01064661    -0.81400
H637        H  0.84718142  0.25346328  0.13260502     0.33400
H638        H  0.81067801  0.25185512  0.10935910     0.37900
H639        H  0.91368200  0.34187383  0.00841515     0.33400
H640        H  0.87663616  0.33617649  0.98725414     0.30000
H641        H  0.76740534  0.37108760  0.09821182     0.33400
H642        H  0.78203388  0.35357988  0.06141692     0.30000
H643        H  0.89600015  0.47193608  0.08126146     0.37900
H644        H  0.90346258  0.44908543  0.04571413     0.33400
C645        C  0.80506478  0.49362436  0.07249999    -0.20400
C646        C  0.77213726  0.50950878  0.07083831     0.35900
C647        C  0.75514465  0.51128025  0.03869845    -0.26300
C648        C  0.76762435  0.49211382  0.01056874     0.02300
C649        C  0.79359805  0.46764631  0.01701470     0.27100
C650        C  0.81550611  0.47370798  0.04412411    -0.25500
N651        N  0.75674959  0.52439528  0.10102647    -0.82800
H652        H  0.73388085  0.52905767  0.03501416     0.12900
C653        C  0.77223339  0.50940775  0.97708739     0.02300
N654        N  0.80286641  0.44167934  0.99251481    -0.81400
H655        H  0.84103856  0.46342609  0.04176500     0.17700
C656        C  0.80324264  0.52706937  0.97511341    -0.26300
C657        C  0.82515577  0.52194273  0.94715040     0.35800
C658        C  0.81191138  0.50817122  0.91636259    -0.20300
C659        C  0.77788844  0.49665607  0.91605332    -0.25500
C660        C  0.75857562  0.49554820  0.94683247     0.27100
H661        H  0.81427386  0.53696271  0.99861808     0.12900
N662        N  0.86128902  0.52603932  0.95297395    -0.82800
H663        H  0.76746411  0.48602279  0.89267430     0.26200
N664        N  0.72672625  0.47791228  0.94809254    -0.81400
H665        H  0.86566498  0.55127213  0.96007669     0.33400
H666        H  0.87613321  0.52007964  0.93127160     0.37900
H667        H  0.71015336  0.48946910  0.93027947     0.33400
H668        H  0.73136360  0.45275276  0.94017338     0.30000
H669        H  0.80954826  0.45280713  0.96903903     0.33400
H670        H  0.78136850  0.42659253  0.98858799     0.30000
H671        H  0.75263455  0.50467300  0.11873214     0.37900
H672        H  0.73264297  0.53494451  0.09518111     0.33400
C673        C  0.04410514  0.73342673  0.15069301    -0.20400
C674        C  0.04012472  0.70638542  0.12742551     0.35900
C675        C  0.04752139  0.67287254  0.13870789    -0.26300
C676        C  0.05983659  0.66615747  0.17227600     0.02300
C677        C  0.06373275  0.69310354  0.19538633     0.27100
C678        C  0.05632990  0.72630755  0.18428436    -0.25500
N679        N  0.02810147  0.71277299  0.09303626    -0.82800
H680        H  0.04409696  0.65180759  0.12116106     0.12900
C681        C  0.06974060  0.63079415  0.18181873     0.02300
N682        N  0.07440442  0.68658130  0.23024935    -0.81400
H683        H  0.05967423  0.74684811  0.20252995     0.17700
C684        C  0.10282520  0.62265858  0.19385997    -0.26300
C685        C  0.11485523  0.58863029  0.19404867     0.35800
C686        C  0.09501770  0.56330654  0.17784974    -0.20300
C687        C  0.06123244  0.57199329  0.16834771    -0.25500
C688        C  0.04748960  0.60440487  0.17432259     0.27100
H689        H  0.11987821  0.64273326  0.20166104     0.12900
N690        N  0.14760608  0.58101482  0.20929286    -0.82800
H691        H  0.04631730  0.55545480  0.15276880     0.17800
N692        N  0.01141955  0.61122841  0.17086942    -0.81400
H693        H  0.16618367  0.59479722  0.19597007     0.33400
H694        H  0.15400126  0.55510860  0.20719960     0.37900
H695        H  0.99856802  0.58834524  0.16758840     0.33400
H696        H  0.00251601  0.62107310  0.19438590     0.30000
H697        H  0.07588616  0.70937225  0.24408178     0.33400
H698        H  0.05533111  0.67216536  0.24219822     0.30000
H699        H  0.04705855  0.72646011  0.08004190     0.37900
H700        H  0.02549912  0.68981836  0.07970693     0.33400
C701        C  0.14206857  0.56909696  0.12101129    -0.20400
C702        C  0.17388394  0.58616493  0.12236399     0.35900
C703        C  0.17641427  0.61899065  0.10773476    -0.26300
C704        C  0.14844280  0.63427444  0.09067682     0.02300
C705        C  0.11786580  0.61622778  0.08692666     0.27100
C706        C  0.11453884  0.58462222  0.10331052    -0.25500
N707        N  0.20385939  0.57121853  0.13823596    -0.82800
H708        H  0.20019337  0.63275681  0.10992945     0.12900
C709        C  0.14987799  0.66984917  0.07813589     0.02300
N710        N  0.09084933  0.62952022  0.06529920    -0.81400
H711        H  0.09022731  0.57179384  0.10192624     0.17700
C712        C  0.16381333  0.67686382  0.04567641    -0.26300
C713        C  0.15986415  0.70946423  0.03100467     0.35800
C714        C  0.13877432  0.73429849  0.04747923    -0.20300
C715        C  0.12643870  0.72769906  0.08078958    -0.25500
C716        C  0.13346181  0.69618417  0.09692880     0.27100
H717        H  0.17771818  0.65703128  0.03172821     0.12900
N718        N  0.17796002  0.71742350  0.99986106    -0.82800
H719        H  0.11293294  0.74773496  0.09485328     0.17800
N720        N  0.12453745  0.69078357  0.13244307    -0.81400
H721        H  0.17232909  0.69874355  0.98170965     0.33400
H722        H  0.20424246  0.71532621  0.00490101     0.37900
H723        H  0.11499842  0.71348562  0.14312577     0.33400
H724        H  0.14719967  0.68510170  0.14573573     0.30000
H725        H  0.06999939  0.61304662  0.06519995     0.33400
H726        H  0.08197487  0.65263683  0.07553771     0.30000
H727        H  0.19849974  0.54774952  0.14971378     0.37900
H728        H  0.21160576  0.58737739  0.15798518     0.33400
C729        C  0.04759929  0.26398637  0.14477142    -0.20400
C730        C  0.08237342  0.27301148  0.14221943     0.35900
C731        C  0.09179273  0.30657131  0.15014459    -0.26300
C732        C  0.06716024  0.33054560  0.16159582     0.02300
C733        C  0.03300773  0.32065821  0.16682975     0.27100
C734        C  0.02371894  0.28727108  0.15883572    -0.25500
N735        N  0.10793100  0.24791306  0.13242552    -0.82800
H736        H  0.11818669  0.31427327  0.14676285     0.12900
C737        C  0.07609540  0.36686636  0.16329160     0.02300
N738        N  0.00799196  0.34470729  0.18009275    -0.81400
H739        H  0.99796103  0.27918247  0.16446497     0.17700
C740        C  0.06306020  0.38837627  0.13757694    -0.26300
C741        C  0.07320479  0.42223773  0.13494264     0.35800
C742        C  0.09595288  0.43545609  0.15993222    -0.20300
C743        C  0.10663919  0.41457080  0.18743104    -0.25500
C744        C  0.09761336  0.38014953  0.18888028     0.27100
H745        H  0.04613556  0.37819756  0.11818554     0.12900
N746        N  0.06036258  0.44191778  0.10626948    -0.82800
H747        H  0.12361081  0.42463324  0.20679576     0.17800
N748        N  0.11071911  0.35925443  0.21631387    -0.81400
H749        H  0.06617784  0.42863546  0.08359858     0.33400
H750        H  0.07281328  0.46512224  0.10408027     0.37900
H751        H  0.12546827  0.33938402  0.20563970     0.33400
H752        H  0.08991368  0.34867627  0.22946648     0.30000
H753        H  0.98397467  0.33336904  0.18243898     0.33400
H754        H  0.01548327  0.35128432  0.20500028     0.30000
H755        H  0.10837298  0.22895297  0.15146300     0.37900
H756        H  0.13231831  0.25866290  0.13239998     0.33400
C757        C  0.14310496  0.26626198  0.05851235    -0.20400
C758        C  0.11406786  0.28811466  0.05956281     0.35900
C759        C  0.11723892  0.32162015  0.07173301    -0.26300
C760        C  0.14939886  0.33502787  0.08023468     0.02300
C761        C  0.17846358  0.31300162  0.07974114     0.27100
C762        C  0.17466132  0.27866190  0.07039253    -0.25500
N763        N  0.08133308  0.27663384  0.04821329    -0.82800
H764        H  0.09417233  0.33705995  0.07482033     0.12900
C765        C  0.15203597  0.37182757  0.08990497     0.02300
N766        N  0.21192333  0.32568525  0.08769194    -0.81400
H767        H  0.19714590  0.26200706  0.07044173     0.17700
C768        C  0.16970541  0.38100309  0.11994640    -0.26300
C769        C  0.17056131  0.41503422  0.13112394     0.35800
C770        C  0.15176466  0.44043328  0.11297403    -0.20300
C771        C  0.13736412  0.43189128  0.08112579    -0.25500
C772        C  0.13729294  0.39816677  0.06943014     0.27100
H773        H  0.18200839  0.36148363  0.13563126     0.12900
N774        N  0.19017131  0.42283960  0.16127187    -0.82800
H775        H  0.12313413  0.45082522  0.06655863     0.17800
N776        N  0.12156246  0.39158523  0.03686645    -0.81400
H777        H  0.17946496  0.40997899  0.18227236     0.33400
H778        H  0.18918104  0.44892567  0.16675455     0.37900
H779        H  0.09770166  0.38049592  0.04065052     0.33400
H780        H  0.13746902  0.37512704  0.02252377     0.30000
H781        H  0.23049744  0.30615242  0.08623343     0.33400
H782        H  0.21825661  0.34357466  0.06871392     0.30000
H783        H  0.06382860  0.27936671  0.06859518     0.37900
H784        H  0.07317909  0.29264084  0.02813866     0.33400
C785        C  0.06365314  0.49598317  0.18791702    -0.20400
C786        C  0.05761722  0.49743339  0.22371920     0.35900
C787        C  0.02347352  0.49986969  0.23624558    -0.26300
C788        C  0.99606183  0.50350358  0.21302305     0.02300
C789        C  0.00282015  0.50346093  0.17738722     0.27100
C790        C  0.03583736  0.49646550  0.16546043    -0.25500
N791        N  0.08587332  0.49656832  0.24707528    -0.82800
H792        H  0.01848077  0.49988177  0.26374503     0.12900
C793        C  0.95974347  0.50475069  0.22413761     0.02300
N794        N  0.97639646  0.51277766  0.15336081    -0.81400
H795        H  0.04049946  0.49730785  0.13802883     0.17700
C796        C  0.94091729  0.53534090  0.22081272    -0.26300
C797        C  0.90626324  0.53444111  0.21112135     0.35800
C798        C  0.89337050  0.50357036  0.19757545    -0.20300
C799        C  0.90715440  0.47436031  0.21437812    -0.25500
C800        C  0.94139011  0.47427483  0.22569676     0.27100
H801        H  0.95310251  0.55958403  0.22523821     0.12900
N802        N  0.88360247  0.55960032  0.22593623    -0.82800
H803        H  0.89300840  0.45110109  0.21682008     0.17800
N804        N  0.95817847  0.44308409  0.23589965    -0.81400
H805        H  0.89064878  0.58381280  0.21751057     0.33400
H806        H  0.85816384  0.55460421  0.21962555     0.37900
H807        H  0.94456410  0.43303323  0.25680101     0.33400
H808        H  0.95669467  0.42573341  0.21558424     0.30000
H809        H  0.97067249  0.53848641  0.15749024     0.33400
H810        H  0.98534155  0.51096444  0.12792119     0.30000
H811        H  0.08461595  0.51878241  0.26192342     0.37900
H812        H  0.08276988  0.47568317  0.26359583     0.33400
C813        C  0.08121860  0.56150054  0.85617759    -0.20400
C814        C  0.06687934  0.57393917  0.88720359     0.35900
C815        C  0.05681781  0.60820527  0.88905788    -0.26300
C816        C  0.05624452  0.62903499  0.85948781     0.02300
C817        C  0.06344112  0.61370678  0.82699951     0.27100
C818        C  0.07793902  0.58089094  0.82600428    -0.25500
N819        N  0.06091393  0.55153507  0.91607472    -0.82800
H820        H  0.05014211  0.61824706  0.91400475     0.12900
C821        C  0.05274304  0.66675771  0.86330328     0.02300
N822        N  0.05589587  0.63026951  0.79472863    -0.81400
H823        H  0.08699841  0.57060796  0.80164168     0.17700
C824        C  0.07459135  0.68751577  0.84364838    -0.26300
C825        C  0.07254059  0.72295768  0.84545329     0.35800
C826        C  0.04841376  0.73835876  0.86750223    -0.20300
C827        C  0.02820126  0.71815839  0.88920965    -0.25500
C828        C  0.02979110  0.68247694  0.88704109     0.27100
H829        H  0.09285579  0.67628770  0.82586363     0.12900
N830        N  0.09511566  0.74332353  0.82492420    -0.82800
H831        H  0.01014029  0.73011469  0.90691241     0.17800
N832        N  0.00735016  0.66260163  0.90815278    -0.81400
H833        H  0.12038310  0.73666064  0.83137271     0.33400
H834        H  0.09139301  0.73720067  0.79901891     0.37900
H835        H  0.98221137  0.66924277  0.90200280     0.33400
H836        H  0.01092987  0.66932613  0.93387558     0.30000
H837        H  0.07908913  0.63641866  0.78269858     0.33400
H838        H  0.04123133  0.65257144  0.79814065     0.30000
H839        H  0.08312084  0.53773379  0.92217026     0.37900
H840        H  0.05340837  0.56532476  0.93790066     0.33400
C841        C  0.14639788  0.56256618  0.88858899    -0.20400
C842        C  0.14431795  0.57382190  0.92316057     0.35900
C843        C  0.14676986  0.60864638  0.93100750    -0.26300
C844        C  0.14873489  0.63366551  0.90521677     0.02300
C845        C  0.15498957  0.62225956  0.87088212     0.27100
C846        C  0.15396455  0.58721269  0.86325129    -0.25500
N847        N  0.13860159  0.55065998  0.95083445    -0.82800
H848        H  0.14521603  0.61623817  0.95780678     0.12900
C849        C  0.14183566  0.67046744  0.91509717     0.02300
N850        N  0.16158561  0.64512316  0.84283673    -0.81400
H851        H  0.15650263  0.57932941  0.83657948     0.17700
C852        C  0.16363469  0.69638457  0.90355112    -0.26300
C853        C  0.15865077  0.73059180  0.91371780     0.35800
C854        C  0.13199713  0.73933664  0.93721658    -0.20300
C855        C  0.10959403  0.71401485  0.94820167    -0.25500
C856        C  0.11451145  0.67983919  0.93794631     0.27100
H857        H  0.18576627  0.68998980  0.88789040     0.12900
N858        N  0.18131084  0.75646872  0.90102806    -0.82800
H859        H  0.08952740  0.72027916  0.96672464     0.17800
N860        N  0.09250405  0.65459490  0.95241509    -0.81400
H861        H  0.19974741  0.74595712  0.88427871     0.33400
H862        H  0.16657513  0.77371128  0.88646268     0.37900
H863        H  0.06724745  0.66247683  0.94806385     0.33400
H864        H  0.09602291  0.65446680  0.97913360     0.30000
H865        H  0.18657106  0.65403407  0.84511776     0.33400
H866        H  0.14452025  0.66577819  0.84401696     0.30000
H867        H  0.11644667  0.55865829  0.96407341     0.37900
H868        H  0.15895940  0.55401561  0.96778993     0.33400
C869        C  0.09464943  0.43721028  0.82543138    -0.20400
C870        C  0.11610194  0.41327132  0.80808523     0.35900
C871        C  0.10541835  0.37923490  0.80430489    -0.26300
C872        C  0.07252493  0.36951371  0.81520265     0.02300
C873        C  0.04898458  0.39502679  0.82544168     0.27100
C874        C  0.06074706  0.42771602  0.83282907    -0.25500
N875        N  0.14939951  0.42287837  0.79614800    -0.82800
H876        H  0.12359763  0.36010597  0.79503024     0.12900
C877        C  0.06486502  0.33309319  0.82284457     0.02300
N878        N  0.01351119  0.38695587  0.83014591    -0.81400
H879        H  0.04393923  0.44445484  0.84714451     0.17700
C880        C  0.05501789  0.32469275  0.85670306    -0.26300
C881        C  0.05113135  0.29071292  0.86734015     0.35800
C882        C  0.05511081  0.26415618  0.84292969    -0.20300
C883        C  0.06425745  0.27266623  0.80872236    -0.25500
C884        C  0.06937217  0.30681937  0.79852097     0.27100
H885        H  0.05180158  0.34488648  0.87547573     0.12900
N886        N  0.04280402  0.28341360  0.90275642    -0.82800
H887        H  0.06728769  0.25260460  0.78973802     0.17800
N888        N  0.07847003  0.31494512  0.76352738    -0.81400
H889        H  0.03859790  0.30598422  0.91658783     0.33400
H890        H  0.06433171  0.27156579  0.91379013     0.37900
H891        H  0.08064342  0.29270605  0.74878166     0.33400
H892        H  0.05823175  0.32939787  0.75309755     0.30000
H893        H  0.99943084  0.40931551  0.83518962     0.33400
H894        H  0.00461112  0.37826714  0.80643731     0.30000
H895        H  0.15011514  0.41946416  0.76943963     0.37900
H896        H  0.16739812  0.40585333  0.80676321     0.33400
C897        C  0.14456691  0.43110335  0.87906478    -0.20400
C898        C  0.17825123  0.41722677  0.87809151     0.35900
C899        C  0.18419824  0.38383083  0.89072165    -0.26300
C900        C  0.15723152  0.36511652  0.90518162     0.02300
C901        C  0.12433249  0.38001245  0.90847291     0.27100
C902        C  0.11815465  0.41236653  0.89468252    -0.25500
N903        N  0.20613235  0.43727555  0.86517420    -0.82800
H904        H  0.20968849  0.37241415  0.88937727     0.12900
C905        C  0.16235923  0.32973445  0.91717163     0.02300
N906        N  0.09737332  0.36207530  0.92602551    -0.81400
H907        H  0.09279634  0.42387285  0.89740049     0.17700
C908        C  0.17569909  0.32393996  0.95000699    -0.26300
C909        C  0.17258600  0.29186901  0.96580373     0.35800
C910        C  0.15202212  0.26684657  0.95024979    -0.20300
C911        C  0.14056877  0.27207563  0.91645225    -0.25500
C912        C  0.14724457  0.30280408  0.89912812     0.27100
H913        H  0.18813241  0.34454855  0.96339741     0.12900
N914        N  0.19020817  0.28475312  0.99740824    -0.82800
H915        H  0.12790463  0.25160248  0.90306897     0.17800
N916        N  0.14004997  0.30653784  0.86304357    -0.81400
H917        H  0.20320682  0.30632393  0.00576281     0.33400
H918        H  0.20914865  0.26620327  0.99233566     0.37900
H919        H  0.12841975  0.28465513  0.85356296     0.33400
H920        H  0.12273186  0.32681623  0.85999182     0.30000
H921        H  0.07461867  0.37661197  0.92614929     0.33400
H922        H  0.10458880  0.35916941  0.95180767     0.30000
H923        H  0.20157331  0.44288154  0.83926117     0.37900
H924        H  0.22917455  0.42323861  0.86615377     0.33400
C925        C  0.16472051  0.50852807  0.08518620    -0.20400
C926        C  0.14293338  0.51454280  0.05673048     0.35900
C927        C  0.15650277  0.51261142  0.02388131    -0.26300
C928        C  0.19074576  0.50278534  0.01751633     0.02300
C929        C  0.21287920  0.49750569  0.04568704     0.27100
C930        C  0.19980821  0.50106499  0.07945232    -0.25500
N931        N  0.10610829  0.51762792  0.05940386    -0.82800
H932        H  0.13832393  0.51355369  0.00301459     0.12900
C933        C  0.19777875  0.48976074  0.98227774     0.02300
N934        N  0.24774546  0.48646274  0.04072408    -0.81400
H935        H  0.21639764  0.49571635  0.10118800     0.17700
C936        C  0.21224584  0.51095186  0.95682300    -0.26300
C937        C  0.19988257  0.51009280  0.92246068     0.35800
C938        C  0.16998918  0.49123541  0.91545258    -0.20300
C939        C  0.15813597  0.46890726  0.94105780    -0.25500
C940        C  0.17549079  0.46419904  0.97183893     0.27100
H941        H  0.23043480  0.53014584  0.96426365     0.12900
N942        N  0.21531059  0.53044240  0.89591510    -0.82800
H943        H  0.13378041  0.45662944  0.93848094     0.17800
N944        N  0.16439704  0.43882827  0.99602830    -0.81400
H945        H  0.23659486  0.54308911  0.90558830     0.33400
H946        H  0.22450526  0.51376166  0.87687482     0.37900
H947        H  0.14778314  0.42213518  0.98376269     0.33400
H948        H  0.18599947  0.42415219  0.00276892     0.30000
H949        H  0.24777663  0.46338892  0.02725360     0.33400
H950        H  0.25999568  0.50463148  0.02538035     0.30000
H951        H  0.09703147  0.51605854  0.08465365     0.37900
H952        H  0.09860996  0.54133505  0.04931368     0.33400
C953        C  0.89866061  0.50147075  0.79117977    -0.20400
C954        C  0.90874231  0.53034296  0.77175074     0.35900
C955        C  0.94327728  0.53239641  0.76121583    -0.26300
C956        C  0.96448001  0.50330932  0.76387967     0.02300
C957        C  0.94863328  0.47167299  0.76773147     0.27100
C958        C  0.91476664  0.47109855  0.77978207    -0.25500
N959        N  0.88375205  0.55467203  0.75952376    -0.82800
H960        H  0.95386958  0.55663422  0.75338098     0.12900
C961        C  0.99788463  0.50685461  0.78043303     0.02300
N962        N  0.96809178  0.44056050  0.76415911    -0.81400
H963        H  0.90262372  0.44702219  0.78127095     0.17700
C964        C  0.99716721  0.50841798  0.81641821    -0.26300
C965        C  0.02723724  0.50664596  0.83530773     0.35800
C966        C  0.05906918  0.50369710  0.81797994    -0.20300
C967        C  0.06002269  0.50304136  0.78175224    -0.25500
C968        C  0.02937082  0.50442970  0.76265446     0.27100
H969        H  0.97277926  0.50936392  0.83007994     0.12900
N970        N  0.02511559  0.50550455  0.87216295    -0.82800
H971        H  0.08457161  0.50096002  0.76857938     0.17800
N972        N  0.02999902  0.50327236  0.72566656    -0.81400
H973        H  0.01106054  0.52705509  0.88018554     0.33400
H974        H  0.01080643  0.48422318  0.87928130     0.37900
H975        H  0.05532601  0.50181266  0.71662751     0.33400
H976        H  0.01822779  0.48071619  0.71815837     0.30000
H977        H  0.96675069  0.42745981  0.78761090     0.33400
H978        H  0.95606915  0.42565543  0.74564173     0.30000
H979        H  0.86679095  0.54169094  0.74366420     0.37900
H980        H  0.89554880  0.57318219  0.74420628     0.33400
C981        C  0.56379592  0.90340972  0.83945384    -0.20400
C982        C  0.57510231  0.92622071  0.86509879     0.35900
C983        C  0.60970664  0.93586263  0.86568874    -0.26300
C984        C  0.63330708  0.92588683  0.83971440     0.02300
C985        C  0.62019576  0.90806015  0.81101387     0.27100
C986        C  0.58645115  0.89551788  0.81215755    -0.25500
N987        N  0.55259255  0.93926008  0.89162162    -0.82800
H988        H  0.61809916  0.94997300  0.88783367     0.12900
C989        C  0.67152018  0.93138666  0.84427455     0.02300
N990        N  0.64133472  0.90202478  0.78107745    -0.81400
H991        H  0.57868107  0.87751535  0.79275411     0.17700
C992        C  0.69534937  0.90579410  0.83404418    -0.26300
C993        C  0.73088903  0.90876459  0.83933311     0.35800
C994        C  0.74390244  0.93808472  0.85525100    -0.20300
C995        C  0.72031972  0.96349763  0.86609704    -0.25500
C996        C  0.68477044  0.96084773  0.86009531     0.27100
H997        H  0.68665486  0.88309965  0.82145531     0.12900
N998        N  0.75361135  0.88169665  0.82848403    -0.82800
H999        H  0.72959331  0.98646233  0.87799225     0.17800
N1000       N  0.66256745  0.98907932  0.86855055    -0.81400
H1001       H  0.74630257  0.85932923  0.84115927     0.33400
H1002       H  0.75034739  0.87811885  0.80201463     0.37900
H1003       H  0.66580865  0.99494491  0.89458682     0.33400
H1004       H  0.67037044  0.00997038  0.85397250     0.30000
H1005       H  0.64702411  0.92579811  0.77036237     0.33400
H1006       H  0.62781434  0.88869354  0.76234716     0.30000
H1007       H  0.52766401  0.93035258  0.88897688     0.37900
H1008       H  0.56196641  0.93101880  0.91547067     0.33400
C1009       C  0.56843608  0.84683449  0.88334395    -0.20400
C1010       C  0.57409482  0.85759693  0.91743882     0.35900
C1011       C  0.60794932  0.86106105  0.92895462    -0.26300
C1012       C  0.63604824  0.85414378  0.90697124     0.02300
C1013       C  0.62989747  0.84057889  0.87358388     0.27100
C1014       C  0.59626243  0.83701750  0.86252924    -0.25500
N1015       N  0.54549583  0.86410093  0.94030917    -0.82800
H1016       H  0.61245752  0.86933087  0.95513545     0.12900
C1017       C  0.67123058  0.85968258  0.91996894     0.02300
N1018       N  0.65649872  0.83166471  0.84920925    -0.81400
H1019       H  0.59167951  0.82816482  0.83653485     0.17700
C1020       C  0.69486444  0.83258154  0.91834635    -0.26300
C1021       C  0.72925809  0.83736033  0.92590768     0.35800
C1022       C  0.74011124  0.86909468  0.93903225    -0.20300
C1023       C  0.71609333  0.89579522  0.94299406    -0.25500
C1024       C  0.68164513  0.89130602  0.93360427     0.27100
H1025       H  0.68685909  0.80775876  0.90943764     0.12900
N1026       N  0.75320706  0.80977782  0.91978543    -0.82800
H1027       H  0.72380034  0.91978221  0.95415282     0.17800
N1028       N  0.65730381  0.91860801  0.93867033    -0.81400
H1029       H  0.74548053  0.78864499  0.93425445     0.33400
H1030       H  0.75213440  0.80330143  0.89369059     0.37900
H1031       H  0.65639413  0.92409906  0.96502757     0.33400
H1032       H  0.66655607  0.94017813  0.92605494     0.30000
H1033       H  0.65659632  0.80515659  0.84621735     0.33400
H1034       H  0.68084571  0.83852607  0.85711295     0.30000
H1035       H  0.53026748  0.88384269  0.93019388     0.37900
H1036       H  0.55400094  0.87211944  0.96437428     0.33400
C1037       C  0.26529072  0.94952579  0.83959295    -0.20400
C1038       C  0.28614379  0.96557296  0.81460834     0.35900
C1039       C  0.31940383  0.95281436  0.80831434    -0.26300
C1040       C  0.33076404  0.92294847  0.82475519     0.02300
C1041       C  0.30783242  0.90445780  0.84568124     0.27100
C1042       C  0.27588280  0.91851745  0.85414626    -0.25500
N1043       N  0.27404506  0.99531908  0.79652364    -0.82800
H1044       H  0.33671090  0.96685682  0.79174031     0.12900
C1045       C  0.36773126  0.91526419  0.82675730     0.02300
N1046       N  0.31678957  0.87146966  0.85885023    -0.81400
H1047       H  0.25901404  0.90487205  0.87154591     0.17700
C1048       C  0.38408572  0.92377437  0.85738807    -0.26300
C1049       C  0.41732977  0.91238563  0.86427596     0.35800
C1050       C  0.43544438  0.89286950  0.83892346    -0.20300
C1051       C  0.41976274  0.88646395  0.80712293    -0.25500
C1052       C  0.38571728  0.89714157  0.80107997     0.27100
H1053       H  0.37034557  0.93860395  0.87670375     0.12900
N1054       N  0.43176802  0.92120950  0.89711560    -0.82800
H1055       H  0.43347571  0.87180348  0.78763358     0.17800
N1056       N  0.36914529  0.88865783  0.76951125    -0.81400
H1057       H  0.43084370  0.94779591  0.89955568     0.33400
H1058       H  0.45763967  0.91403688  0.89858328     0.37900
H1059       H  0.38348611  0.89889596  0.74920002     0.33400
H1060       H  0.36974065  0.86207669  0.76707797     0.30000
H1061       H  0.33918891  0.87405085  0.87292991     0.33400
H1062       H  0.32233570  0.85554498  0.83791682     0.30000
H1063       H  0.27434962  0.98978560  0.77017777     0.37900
H1064       H  0.29135445  0.01497976  0.80060280     0.33400
C1065       C  0.44000301  0.83964376  0.88754124    -0.20400
C1066       C  0.41209409  0.82413922  0.87109868     0.35900
C1067       C  0.38019698  0.82248365  0.88829282    -0.26300
C1068       C  0.37528308  0.83711586  0.92110798     0.02300
C1069       C  0.40406665  0.84949709  0.93860409     0.27100
C1070       C  0.43611961  0.85042377  0.92187575    -0.25500
N1071       N  0.41613926  0.81111346  0.83671084    -0.82800
H1072       H  0.35848877  0.81171596  0.87511766     0.12900
C1073       C  0.33953803  0.84138114  0.93509128     0.02300
N1074       N  0.40081702  0.86142095  0.97326437    -0.81400
H1075       H  0.45773632  0.86137923  0.93504700     0.17700
C1076       C  0.31828016  0.81294030  0.93725711    -0.26300
C1077       C  0.28320744  0.81643342  0.94560074     0.35800
C1078       C  0.26841158  0.84926869  0.95167123    -0.20300
C1079       C  0.28985850  0.87769508  0.94976293    -0.25500
C1080       C  0.32506671  0.87405452  0.94191021     0.27100
H1081       H  0.32887745  0.78775814  0.93180194     0.12900
N1082       N  0.26276168  0.78638919  0.94725760    -0.82800
H1083       H  0.27927654  0.90307533  0.95416545     0.17800
N1084       N  0.34551945  0.90395638  0.93885333    -0.81400
H1085       H  0.27336767  0.76994681  0.96578005     0.33400
H1086       H  0.26423775  0.77419969  0.92334129     0.37900
H1087       H  0.34478895  0.91661991  0.96251745     0.33400
H1088       H  0.33389520  0.92012098  0.92072583     0.30000
H1089       H  0.40923250  0.88661493  0.97405350     0.33400
H1090       H  0.41708409  0.84654178  0.98875321     0.30000
H1091       H  0.43409178  0.79100239  0.83762083     0.37900
H1092       H  0.39313101  0.80086347  0.82808710     0.33400
C1093       C  0.56066184  0.88287852  0.16343369    -0.20400
C1094       C  0.58385979  0.86444401  0.18495948     0.35900
C1095       C  0.61886936  0.87352368  0.18596305    -0.26300
C1096       C  0.63138816  0.90179298  0.16750077     0.02300
C1097       C  0.60727075  0.92244183  0.14944411     0.27100
C1098       C  0.57255264  0.91269097  0.14727500    -0.25500
N1099       N  0.57244927  0.83732908  0.20714302    -0.82800
H1100       H  0.63647273  0.85838537  0.20148770     0.12900
C1101       C  0.66946791  0.90935097  0.16736732     0.02300
N1102       N  0.61799115  0.95295916  0.13238156    -0.81400
H1103       H  0.55516210  0.92750050  0.13118982     0.17700
C1104       C  0.69322507  0.88595000  0.15257457    -0.26300
C1105       C  0.72867857  0.89312128  0.15004323     0.35800
C1106       C  0.74143578  0.92422123  0.16289983    -0.20300
C1107       C  0.71786900  0.94704057  0.17867811    -0.25500
C1108       C  0.68233277  0.93993257  0.18120424     0.27100
H1109       H  0.68395701  0.86236083  0.14179684     0.12900
N1110       N  0.75091951  0.86896929  0.13305234    -0.82800
H1111       H  0.72723690  0.97086713  0.18879326     0.17800
N1112       N  0.65919975  0.96379851  0.19771485    -0.81400
H1113       H  0.76252101  0.88118110  0.11209848     0.33400
H1114       H  0.77011668  0.86138767  0.15029276     0.37900
H1115       H  0.64918601  0.95184083  0.21962775     0.33400
H1116       H  0.67243836  0.98513922  0.20628034     0.30000
H1117       H  0.61080042  0.95148773  0.10653341     0.33400
H1118       H  0.60429608  0.97347805  0.14324727     0.30000
H1119       H  0.54632170  0.83279142  0.20407928     0.37900
H1120       H  0.58577117  0.81488683  0.20077405     0.33400
C1121       C  0.56071311  0.84588992  0.10132969    -0.20400
C1122       C  0.58816197  0.82272445  0.10785887     0.35900
C1123       C  0.61981087  0.82765485  0.09137652    -0.26300
C1124       C  0.62465952  0.85472114  0.06805511     0.02300
C1125       C  0.59645951  0.87585796  0.05937163     0.27100
C1126       C  0.56494203  0.87157349  0.07634129    -0.25500
N1127       N  0.58481721  0.79379409  0.13044323    -0.82800
H1128       H  0.64110851  0.81057600  0.09748396     0.12900
C1129       C  0.65949862  0.86007143  0.05333596     0.02300
N1130       N  0.59964238  0.90147816  0.03317424    -0.81400
H1131       H  0.54392264  0.88911076  0.07075838     0.17700
C1132       C  0.67696060  0.83230615  0.03834443    -0.26300
C1133       C  0.71150587  0.83456849  0.02864864     0.35800
C1134       C  0.72933598  0.86527759  0.03401527    -0.20300
C1135       C  0.71132904  0.89372365  0.04704024    -0.25500
C1136       C  0.67673546  0.89126522  0.05698009     0.27100
H1137       H  0.66391312  0.80833104  0.03494462     0.12900
N1138       N  0.72842322  0.80533648  0.01375384    -0.82800
H1139       H  0.72456200  0.91744105  0.05135445     0.17800
N1140       N  0.65987900  0.91999229  0.07257354    -0.81400
H1141       H  0.71486632  0.79838633  0.99177094     0.33400
H1142       H  0.72712516  0.78518321  0.03144264     0.37900
H1143       H  0.66088778  0.94048525  0.05526717     0.33400
H1144       H  0.67376891  0.92649551  0.09441063     0.30000
H1145       H  0.59299741  0.92509585  0.04404517     0.33400
H1146       H  0.58182677  0.89639472  0.01394026     0.30000
H1147       H  0.56085210  0.79358763  0.14261878     0.37900
H1148       H  0.60341450  0.79561393  0.14958072     0.33400
C1149       C  0.42973274  0.88006111  0.15921617    -0.20400
C1150       C  0.41248280  0.88014244  0.19167673     0.35900
C1151       C  0.37942538  0.89523629  0.19427935    -0.26300
C1152       C  0.36478994  0.91292464  0.16620991     0.02300
C1153       C  0.38531256  0.91836735  0.13659541     0.27100
C1154       C  0.41501026  0.89872409  0.13194725    -0.25500
N1155       N  0.42658250  0.86352645  0.22160139    -0.82800
H1156       H  0.36469202  0.89180524  0.21778107     0.12900
C1157       C  0.32725245  0.92079009  0.16521523     0.02300
N1158       N  0.37752240  0.94451737  0.11150708    -0.81400
H1159       H  0.42844264  0.90048706  0.10755623     0.17700
C1160       C  0.30923756  0.93421949  0.19372701    -0.26300
C1161       C  0.27419230  0.94320357  0.19071958     0.35800
C1162       C  0.25837519  0.94057548  0.15789421    -0.20300
C1163       C  0.27517545  0.92444750  0.13122059    -0.25500
C1164       C  0.30874821  0.91358150  0.13507597     0.27100
H1165       H  0.32246114  0.93837549  0.21777654     0.12900
N1166       N  0.25528589  0.95616919  0.22007750    -0.82800
H1167       H  0.26195925  0.91936197  0.10726264     0.17800
N1168       N  0.32342545  0.89349943  0.10842206    -0.81400
H1169       H  0.27089954  0.95661776  0.24188651     0.33400
H1170       H  0.24796763  0.98146739  0.21496507     0.37900
H1171       H  0.30774181  0.87234365  0.10721927     0.33400
H1172       H  0.32070940  0.90731846  0.08543901     0.30000
H1173       H  0.37348414  0.93318432  0.08760167     0.33400
H1174       H  0.35575547  0.95898501  0.11833740     0.30000
H1175       H  0.45070061  0.85271776  0.21632892     0.37900
H1176       H  0.41047322  0.84341289  0.22820438     0.33400
C1177       C  0.26453483  0.84573128  0.05092661    -0.20400
C1178       C  0.26866704  0.81856902  0.07477168     0.35900
C1179       C  0.30159786  0.80725571  0.08455276    -0.26300
C1180       C  0.33118179  0.82295779  0.07173498     0.02300
C1181       C  0.32730175  0.84941005  0.04685796     0.27100
C1182       C  0.29399044  0.86075347  0.03704399    -0.25500
N1183       N  0.23918747  0.80293296  0.09000293    -0.82800
H1184       H  0.30397638  0.78682727  0.10333432     0.12900
C1185       C  0.36518514  0.81575646  0.08844367     0.02300
N1186       N  0.35702596  0.86656056  0.03384428    -0.81400
H1187       H  0.29103578  0.88159605  0.01891978     0.17700
C1188       C  0.39365483  0.80541616  0.06857500    -0.26300
C1189       C  0.42609376  0.80100861  0.08391086     0.35800
C1190       C  0.43221493  0.81663986  0.11633979    -0.20300
C1191       C  0.40313345  0.81706418  0.13821737    -0.25500
C1192       C  0.36968605  0.81796813  0.12452662     0.27100
H1193       H  0.38978033  0.79694543  0.04234216     0.12900
N1194       N  0.44490965  0.77093772  0.07369375    -0.82800
H1195       H  0.40621762  0.81929419  0.16573721     0.17800
N1196       N  0.34077406  0.82218350  0.14719682    -0.81400
H1197       H  0.45472186  0.77423355  0.04884476     0.33400
H1198       H  0.46421714  0.76480080  0.09131944     0.37900
H1199       H  0.34102460  0.80185310  0.16472328     0.33400
H1200       H  0.34375054  0.84464031  0.16114715     0.30000
H1201       H  0.34966844  0.88641462  0.01726354     0.33400
H1202       H  0.36938830  0.87795787  0.05455561     0.30000
H1203       H  0.24030736  0.77683007  0.08446294     0.37900
H1204       H  0.24062391  0.80579280  0.11674330     0.33400
C1205       C  0.50816294  0.79969846  0.89852209    -0.20400
C1206       C  0.53940112  0.78759202  0.91318529     0.35900
C1207       C  0.54090538  0.78354108  0.94917038    -0.26300
C1208       C  0.51026151  0.78454425  0.96823274     0.02300
C1209       C  0.47929437  0.78026555  0.95033949     0.27100
C1210       C  0.47932260  0.78505725  0.91441550    -0.25500
N1211       N  0.56587835  0.77205268  0.89237588    -0.82800
H1212       H  0.56545632  0.78049245  0.96185007     0.12900
C1213       C  0.50948197  0.79617870  0.00441012     0.02300
N1214       N  0.44804468  0.77365002  0.96887711    -0.81400
H1215       H  0.45616554  0.78070887  0.90021702     0.17700
C1216       C  0.49110123  0.82644045  0.01156354    -0.26300
C1217       C  0.48664394  0.83807023  0.04518590     0.35800
C1218       C  0.50041553  0.81878022  0.07287435    -0.20300
C1219       C  0.52108833  0.78974994  0.06546672    -0.25500
C1220       C  0.52589799  0.77847071  0.03137975     0.27100
H1221       H  0.47992705  0.84115675  0.99065694     0.12900
N1222       N  0.46814048  0.86957648  0.05030763    -0.82800
H1223       H  0.53298446  0.77552146  0.08629486     0.17800
N1224       N  0.54690016  0.74895035  0.02437856    -0.81400
H1225       H  0.44568894  0.86464840  0.06404511     0.33400
H1226       H  0.48320936  0.88604200  0.06468484     0.37900
H1227       H  0.57151639  0.75357722  0.03368940     0.33400
H1228       H  0.53691817  0.72840316  0.03825322     0.30000
H1229       H  0.42747183  0.77196853  0.95181599     0.33400
H1230       H  0.45086054  0.74974403  0.98068044     0.30000
H1231       H  0.56132373  0.77687119  0.86626457     0.37900
H1232       H  0.58960430  0.78189231  0.89927766     0.33400
C1233       C  0.74198753  0.05192331  0.85317036    -0.20400
C1234       C  0.72312715  0.06221514  0.88254237     0.35900
C1235       C  0.69081386  0.07730843  0.87848679    -0.26300
C1236       C  0.67480085  0.07891366  0.84616102     0.02300
C1237       C  0.69248777  0.06591716  0.81696223     0.27100
C1238       C  0.72632316  0.05353295  0.82064552    -0.25500
N1239       N  0.73653370  0.05757591  0.91661471    -0.82800
H1240       H  0.67820464  0.08780072  0.90112071     0.12900
C1241       C  0.63938572  0.09346053  0.84414488     0.02300
N1242       N  0.67590430  0.06455779  0.78400964    -0.81400
H1243       H  0.74029769  0.04460373  0.79808605     0.17700
C1244       C  0.63036025  0.11673252  0.81778248    -0.26300
C1245       C  0.59769215  0.13242407  0.81691096     0.35800
C1246       C  0.57441317  0.12625355  0.84421627    -0.20300
C1247       C  0.58386212  0.10368617  0.87066567    -0.25500
C1248       C  0.61496856  0.08591136  0.86992306     0.27100
H1249       H  0.64890916  0.12332282  0.79805028     0.12900
N1250       N  0.58938796  0.15465439  0.78849834    -0.82800
H1251       H  0.56651846  0.09936337  0.89203713     0.17800
N1252       N  0.62146919  0.06005529  0.89543434    -0.81400
H1253       H  0.60595997  0.17535163  0.78935788     0.33400
H1254       H  0.56443999  0.16458709  0.79065137     0.37900
H1255       H  0.60235352  0.04177012  0.89371122     0.33400
H1256       H  0.61944482  0.07134828  0.91977438     0.30000
H1257       H  0.69251104  0.05419626  0.76536655     0.33400
H1258       H  0.65538981  0.04780585  0.78635515     0.30000
H1259       H  0.73678847  0.08120195  0.92898450     0.37900
H1260       H  0.71975303  0.04189591  0.93031661     0.33400
C1261       C  0.57041075  0.18198165  0.88764863    -0.20400
C1262       C  0.57883488  0.16847289  0.92066350     0.35900
C1263       C  0.61244577  0.17131234  0.93297891    -0.26300
C1264       C  0.63827068  0.18619979  0.91290822     0.02300
C1265       C  0.62972066  0.20117061  0.88095914     0.27100
C1266       C  0.59591808  0.19895068  0.86865254    -0.25500
N1267       N  0.55458429  0.15042029  0.94170269    -0.82800
H1268       H  0.61896224  0.15982197  0.95760143     0.12900
C1269       C  0.67458417  0.18239231  0.92411202     0.02300
N1270       N  0.65568382  0.21774236  0.86079123    -0.81400
H1271       H  0.58961916  0.20922685  0.84347511     0.17700
C1272       C  0.69741871  0.16236427  0.90425687    -0.26300
C1273       C  0.73082745  0.15472639  0.91590445     0.35800
C1274       C  0.74095096  0.16607450  0.94867421    -0.20300
C1275       C  0.71916435  0.18828883  0.96725265    -0.25500
C1276       C  0.68608766  0.19678576  0.95513814     0.27100
H1277       H  0.68895352  0.15235466  0.87979326     0.12900
N1278       N  0.75479426  0.13626174  0.89432792    -0.82800
H1279       H  0.72788121  0.19872664  0.99137586     0.17800
N1280       N  0.66420356  0.22007365  0.97398381    -0.81400
H1281       H  0.74366997  0.13082290  0.87055934     0.33400
H1282       H  0.77528717  0.15239074  0.88898741     0.37900
H1283       H  0.67681417  0.22897606  0.99581730     0.33400
H1284       H  0.65965666  0.24137462  0.95823185     0.30000
H1285       H  0.64532179  0.22725224  0.83781419     0.33400
H1286       H  0.66384709  0.23883793  0.87479757     0.30000
H1287       H  0.53109016  0.14786331  0.92936291     0.37900
H1288       H  0.56421544  0.12571234  0.94592968     0.33400
C1289       C  0.27597740  0.05141047  0.86296421    -0.20400
C1290       C  0.30256008  0.02906307  0.87414810     0.35900
C1291       C  0.33736902  0.03747788  0.86786760    -0.26300
C1292       C  0.34679020  0.06969349  0.85453228     0.02300
C1293       C  0.31933829  0.09281914  0.84638011     0.27100
C1294       C  0.28495053  0.08293432  0.84919013    -0.25500
N1295       N  0.29428279  0.99744970  0.89083201    -0.82800
H1296       H  0.35666636  0.01827397  0.87313904     0.12900
C1297       C  0.38426204  0.07983083  0.84901350     0.02300
N1298       N  0.32573752  0.12709184  0.83582534    -0.81400
H1299       H  0.26484498  0.10074889  0.84135095     0.17700
C1300       C  0.39232025  0.10083211  0.82043292    -0.26300
C1301       C  0.42313205  0.11900499  0.81806453     0.35800
C1302       C  0.44825973  0.11473675  0.84391605    -0.20300
C1303       C  0.44278404  0.09003069  0.86952582    -0.25500
C1304       C  0.41179972  0.07226060  0.87225139     0.27100
H1305       H  0.37373598  0.10455540  0.80009979     0.12900
N1306       N  0.42675797  0.14319595  0.79039275    -0.82800
H1307       H  0.46258945  0.08526729  0.88851599     0.17800
N1308       N  0.41043317  0.04638186  0.89835990    -0.81400
H1309       H  0.42577386  0.12975690  0.76721320     0.33400
H1310       H  0.45053296  0.15505793  0.79108185     0.37900
H1311       H  0.40956434  0.02250676  0.88676671     0.33400
H1312       H  0.38913049  0.05010512  0.91433395     0.30000
H1313       H  0.31542514  0.13064185  0.81122533     0.33400
H1314       H  0.31213827  0.14327220  0.85256706     0.30000
H1315       H  0.28248591  0.00335643  0.91439433     0.37900
H1316       H  0.31659553  0.98342409  0.89659850     0.33400
C1317       C  0.44059941  0.17256007  0.88523461    -0.20400
C1318       C  0.43364906  0.15873972  0.91798380     0.35900
C1319       C  0.39965140  0.15626496  0.92958252    -0.26300
C1320       C  0.37192445  0.16582183  0.90845346     0.02300
C1321       C  0.37919857  0.18207692  0.87648361     0.27100
C1322       C  0.41324949  0.18452730  0.86502051    -0.25500
N1323       N  0.46095149  0.14553426  0.93883569    -0.82800
H1324       H  0.39496281  0.14601186  0.95507504     0.12900
C1325       C  0.33613973  0.15792911  0.92012654     0.02300
N1326       N  0.35249378  0.19583870  0.85510336    -0.81400
H1327       H  0.41846942  0.19531310  0.83979538     0.17700
C1328       C  0.30981646  0.18240625  0.91611920    -0.26300
C1329       C  0.27604821  0.17546988  0.92600871     0.35800
C1330       C  0.26833665  0.14428802  0.94276071    -0.20300
C1331       C  0.29418791  0.11972626  0.94673949    -0.25500
C1332       C  0.32777227  0.12608459  0.93544021     0.27100
H1333       H  0.31527262  0.20741004  0.90572211     0.12900
N1334       N  0.24958384  0.20042083  0.91909750    -0.82800
H1335       H  0.28862352  0.09579490  0.95956099     0.17800
N1336       N  0.35302160  0.09963075  0.93945205    -0.81400
H1337       H  0.24902446  0.20482549  0.89250286     0.33400
H1338       H  0.25605532  0.22325036  0.93113799     0.37900
H1339       H  0.35537924  0.09453283  0.96579838     0.33400
H1340       H  0.34287475  0.07784168  0.92823876     0.30000
H1341       H  0.35627718  0.22211619  0.85277525     0.33400
H1342       H  0.35534594  0.18543774  0.83045043     0.30000
H1343       H  0.45698182  0.11945634  0.94258532     0.37900
H1344       H  0.45875811  0.15725514  0.96288812     0.33400
C1345       C  0.51509745  0.09363100  0.81909940    -0.20400
C1346       C  0.50994292  0.08827885  0.78359603     0.35900
C1347       C  0.50984292  0.05459323  0.77076612    -0.26300
C1348       C  0.51806961  0.02705242  0.79261147     0.02300
C1349       C  0.52947444  0.03365385  0.82626152     0.27100
C1350       C  0.52441478  0.06595890  0.84001283    -0.25500
N1351       N  0.50373694  0.11660616  0.76099692    -0.82800
H1352       H  0.50138006  0.04986695  0.74470080     0.12900
C1353       C  0.50259045  0.99332732  0.78768284     0.02300
N1354       N  0.54109674  0.00622586  0.84805986    -0.81400
H1355       H  0.52669794  0.06908953  0.86753154     0.17700
C1356       C  0.52048677  0.96658543  0.77112991    -0.26300
C1357       C  0.51524626  0.93241908  0.78175756     0.35800
C1358       C  0.49699854  0.92623877  0.81282371    -0.20300
C1359       C  0.47796115  0.95337921  0.82704395    -0.25500
C1360       C  0.47697863  0.98534651  0.81174573     0.27100
H1361       H  0.53942909  0.97232554  0.75148134     0.12900
N1362       N  0.52918729  0.90444973  0.76214501    -0.82800
H1363       H  0.46599338  0.95116885  0.85169845     0.17800
N1364       N  0.45520570  0.01174823  0.82585062    -0.81400
H1365       H  0.54181908  0.91349390  0.74015907     0.33400
H1366       H  0.50856774  0.89006049  0.75358556     0.37900
H1367       H  0.46066952  0.01402875  0.85207814     0.33400
H1368       H  0.42976432  0.00401596  0.82357660     0.30000
H1369       H  0.56576953  0.01186654  0.85645581     0.33400
H1370       H  0.52497152  0.00511320  0.86968563     0.30000
H1371       H  0.48065766  0.11251553  0.74822303     0.37900
H1372       H  0.52326617  0.11653461  0.74238315     0.33400
C1373       C  0.72951634  0.03976070  0.14837993    -0.20400
C1374       C  0.70475903  0.02258955  0.12928482     0.35900
C1375       C  0.67024899  0.03275903  0.13213989    -0.26300
C1376       C  0.66057380  0.06152426  0.15177103     0.02300
C1377       C  0.68566019  0.07878793  0.17090917     0.27100
C1378       C  0.71960330  0.06688902  0.16990580    -0.25500
N1379       N  0.71457435  0.99510791  0.10689878    -0.82800
H1380       H  0.65116521  0.01891826  0.11789817     0.12900
C1381       C  0.62530949  0.07583020  0.14926083     0.02300
N1382       N  0.67699700  0.10921074  0.19002121    -0.81400
H1383       H  0.73889005  0.08029173  0.18436381     0.17700
C1384       C  0.60792319  0.08662629  0.17932784    -0.26300
C1385       C  0.57788770  0.10661655  0.17729101     0.35800
C1386       C  0.56428502  0.11465950  0.14479113    -0.20300
C1387       C  0.58053751  0.10217532  0.11497628    -0.25500
C1388       C  0.61064135  0.08276630  0.11680217     0.27100
H1389       H  0.61845836  0.08066853  0.20446222     0.12900
N1390       N  0.56178927  0.11937060  0.20803698    -0.82800
H1391       H  0.56929553  0.10706668  0.08991233     0.17800
N1392       N  0.62652599  0.07099658  0.08548693    -0.81400
H1393       H  0.57959522  0.13424731  0.22097901     0.33400
H1394       H  0.55608906  0.09852766  0.22385692     0.37900
H1395       H  0.60919032  0.05524115  0.07296613     0.33400
H1396       H  0.63078551  0.09205836  0.06949663     0.30000
H1397       H  0.66945944  0.12806952  0.17236043     0.33400
H1398       H  0.69847165  0.11851672  0.20275071     0.30000
H1399       H  0.70105846  0.97357992  0.11454089     0.37900
H1400       H  0.70680426  0.00153789  0.08192664     0.33400
C1401       C  0.56481193  0.17943406  0.11094643    -0.20400
C1402       C  0.58672647  0.18821544  0.13845856     0.35900
C1403       C  0.62257130  0.18814765  0.13307720    -0.26300
C1404       C  0.63622927  0.18077825  0.10041457     0.02300
C1405       C  0.61415530  0.17650558  0.07235384     0.27100
C1406       C  0.57910028  0.17605597  0.07787660    -0.25500
N1407       N  0.57257400  0.19365257  0.17232878    -0.82800
H1408       H  0.63975658  0.19197698  0.15451290     0.12900
C1409       C  0.67300665  0.17393031  0.09518302     0.02300
N1410       N  0.62678298  0.16989963  0.03816959    -0.81400
H1411       H  0.56427775  0.16832515  0.05651258     0.17700
C1412       C  0.68434047  0.13975798  0.09521146    -0.26300
C1413       C  0.71437232  0.12981308  0.07762146     0.35800
C1414       C  0.73434209  0.15466619  0.06140823    -0.20300
C1415       C  0.72429144  0.18939843  0.06422669    -0.25500
C1416       C  0.69381352  0.19911411  0.08062786     0.27100
H1417       H  0.66856453  0.12049966  0.10683889     0.12900
N1418       N  0.72453147  0.09462944  0.07637105    -0.82800
H1419       H  0.73980940  0.20930887  0.05296383     0.17800
N1420       N  0.68396937  0.23452821  0.08125333    -0.81400
H1421       H  0.72922216  0.08683590  0.10161842     0.33400
H1422       H  0.70412817  0.08063677  0.06678453     0.37900
H1423       H  0.68040835  0.24170412  0.10698158     0.33400
H1424       H  0.66055576  0.23767573  0.06853637     0.30000
H1425       H  0.64193584  0.14764163  0.03838099     0.33400
H1426       H  0.64203721  0.19025843  0.03063892     0.30000
H1427       H  0.59204947  0.19887290  0.18987120     0.37900
H1428       H  0.55674207  0.21542637  0.17115539     0.33400
C1429       C  0.26703323  0.04805914  0.14407864    -0.20400
C1430       C  0.27639575  0.08033613  0.13114313     0.35900
C1431       C  0.31043884  0.09093354  0.13387991    -0.26300
C1432       C  0.33564118  0.06997085  0.14938095     0.02300
C1433       C  0.32601731  0.03823095  0.16371381     0.27100
C1434       C  0.29192094  0.02787548  0.16068437    -0.25500
N1435       N  0.25162181  0.10326916  0.11622633    -0.82800
H1436       H  0.31737395  0.11566286  0.12355884     0.12900
C1437       C  0.37157040  0.08194350  0.14948182     0.02300
N1438       N  0.34992175  0.01581659  0.18116569    -0.81400
H1439       H  0.28477072  0.00390035  0.17161474     0.17700
C1440       C  0.37921120  0.11101289  0.16889190    -0.26300
C1441       C  0.41157770  0.12605214  0.16695472     0.35800
C1442       C  0.43677269  0.11190499  0.14460238    -0.20300
C1443       C  0.42983994  0.08163748  0.12695708    -0.25500
C1444       C  0.39767958  0.06645066  0.12892109     0.27100
H1445       H  0.35956536  0.12249473  0.18525460     0.12900
N1446       N  0.41799251  0.15519358  0.18827164    -0.82800
H1447       H  0.44905235  0.07067539  0.10988561     0.17800
N1448       N  0.39238642  0.03614915  0.10884872    -0.81400
H1449       H  0.40083043  0.17469881  0.18120584     0.33400
H1450       H  0.44274054  0.16440593  0.18456654     0.37900
H1451       H  0.39727886  0.04200344  0.08299206     0.33400
H1452       H  0.36705603  0.02808342  0.11008445     0.30000
H1453       H  0.34114967  0.01277600  0.20650376     0.33400
H1454       H  0.37420840  0.02646625  0.18292403     0.30000
H1455       H  0.24031536  0.09098637  0.09545633     0.37900
H1456       H  0.23253755  0.10837981  0.13465208     0.33400
C1457       C  0.27282911  0.14132807  0.03273424    -0.20400
C1458       C  0.28940280  0.17207258  0.02393987     0.35900
C1459       C  0.32503331  0.17335867  0.02483971    -0.26300
C1460       C  0.34441038  0.14526350  0.03627139     0.02300
C1461       C  0.32810723  0.11370947  0.04227866     0.27100
C1462       C  0.29245717  0.11192089  0.03937059    -0.25500
N1463       N  0.27030033  0.20238347  0.01495690    -0.82800
H1464       H  0.33744512  0.19737821  0.01938687     0.12900
C1465       C  0.37919673  0.15167057  0.04923509     0.02300
N1466       N  0.34723632  0.08430736  0.05386555    -0.81400
H1467       H  0.27985606  0.08803175  0.04480453     0.17700
C1468       C  0.38335289  0.17866105  0.07269055    -0.26300
C1469       C  0.41368220  0.18208999  0.09119805     0.35800
C1470       C  0.43971752  0.15706784  0.08707304    -0.20300
C1471       C  0.43620242  0.13129199  0.06243860    -0.25500
C1472       C  0.40692643  0.12941910  0.04227146     0.27100
H1473       H  0.36229193  0.19634863  0.07795490     0.12900
N1474       N  0.41669896  0.21052954  0.11425431    -0.82800
H1475       H  0.45566251  0.11142602  0.06004373     0.17800
N1476       N  0.40518884  0.10447152  0.01545887    -0.81400
H1477       H  0.39719302  0.20885823  0.13275467     0.33400
H1478       H  0.44000219  0.20983155  0.12737533     0.37900
H1479       H  0.40975726  0.08036911  0.02632838     0.33400
H1480       H  0.42518760  0.10905630  0.99805983     0.30000
H1481       H  0.33122783  0.06345873  0.05773548     0.33400
H1482       H  0.35722140  0.09042690  0.07786301     0.30000
H1483       H  0.27615059  0.22140961  0.03271981     0.37900
H1484       H  0.27860061  0.21056311  0.99068079     0.33400
C1485       C  0.50201856  0.08340236  0.16603333    -0.20400
C1486       C  0.51426763  0.05547764  0.14656543     0.35900
C1487       C  0.51809937  0.02384417  0.16223664    -0.26300
C1488       C  0.50255745  0.01747102  0.19427057     0.02300
C1489       C  0.48938809  0.04487232  0.21382426     0.27100
C1490       C  0.49033073  0.07814503  0.19999096    -0.25500
N1491       N  0.51960588  0.05832497  0.11004812    -0.82800
H1492       H  0.52744661  0.00262671  0.14665784     0.12900
C1493       C  0.49011639  0.98244887  0.19842773     0.02300
N1494       N  0.47383232  0.03876419  0.24672500    -0.81400
H1495       H  0.48033103  0.09949290  0.21486964     0.17700
C1496       C  0.50758669  0.95837718  0.21910487    -0.26300
C1497       C  0.50671252  0.92329374  0.21070212     0.35800
C1498       C  0.49175024  0.91338239  0.17925561    -0.20300
C1499       C  0.47539215  0.93833787  0.15914131    -0.25500
C1500       C  0.46989421  0.97104465  0.17119445     0.27100
H1501       H  0.52323761  0.96686110  0.24029552     0.12900
N1502       N  0.52250539  0.89845598  0.23285937    -0.82800
H1503       H  0.46791169  0.93293531  0.13309075     0.17800
N1504       N  0.44853267  0.99448107  0.15215196    -0.81400
H1505       H  0.54809372  0.90524857  0.23631707     0.33400
H1506       H  0.51024660  0.89993314  0.25687094     0.37900
H1507       H  0.42363668  0.98494226  0.15226325     0.33400
H1508       H  0.45719865  0.99517615  0.12658465     0.30000
H1509       H  0.48690503  0.05304211  0.26502209     0.33400
H1510       H  0.44848239  0.04791684  0.24584443     0.30000
H1511       H  0.54385349  0.04803081  0.10418171     0.37900
H1512       H  0.50190331  0.04267917  0.09792173     0.33400
C1513       C  0.50127718  0.19067399  0.06760192    -0.20400
C1514       C  0.50526838  0.17296035  0.03615813     0.35900
C1515       C  0.50547029  0.19107543  0.00537926    -0.26300
C1516       C  0.50009085  0.22635463  0.00446611     0.02300
C1517       C  0.49557752  0.24451564  0.03564468     0.27100
C1518       C  0.49637731  0.22632826  0.06709898    -0.25500
N1519       N  0.51115905  0.13667796  0.03538152    -0.82800
H1520       H  0.50962984  0.17730874  0.98165045     0.12900
C1521       C  0.49910186  0.24150743  0.96967705     0.02300
N1522       N  0.48998684  0.28084699  0.03634323    -0.81400
H1523       H  0.49279533  0.23994372  0.09114656     0.17700
C1524       C  0.46850487  0.23974444  0.95108291    -0.26300
C1525       C  0.46990140  0.23272248  0.91553460     0.35800
C1526       C  0.50127658  0.22043564  0.90117782    -0.20300
C1527       C  0.53015097  0.23601900  0.91581905    -0.25500
C1528       C  0.52987716  0.24429606  0.95099851     0.27100
H1529       H  0.44398318  0.24219094  0.96425410     0.12900
N1530       N  0.44184199  0.24264197  0.89376803    -0.82800
H1531       H  0.55344207  0.23974844  0.90140755     0.17800
N1532       N  0.56105573  0.25241580  0.96823944    -0.81400
H1533       H  0.42155312  0.25277958  0.90849422     0.33400
H1534       H  0.45033007  0.26219259  0.87756892     0.37900
H1535       H  0.57843443  0.23206798  0.96482828     0.33400
H1536       H  0.57133734  0.27390495  0.95620094     0.30000
H1537       H  0.51076016  0.29150815  0.04912937     0.33400
H1538       H  0.48994611  0.29113276  0.01147513     0.30000
H1539       H  0.49319735  0.12622912  0.01871058     0.37900
H1540       H  0.53512829  0.13181450  0.02398360     0.33400
C1541       C  0.88218579  0.81621457  0.56319174    -0.20400
C1542       C  0.86302878  0.79943043  0.58920937     0.35900
C1543       C  0.87655666  0.79637532  0.62265459    -0.26300
C1544       C  0.90891318  0.80943840  0.63067975     0.02300
C1545       C  0.92909905  0.82325561  0.60405684     0.27100
C1546       C  0.91592882  0.82598290  0.57067142    -0.25500
N1547       N  0.82956143  0.78602547  0.58280819    -0.82800
H1548       H  0.86110200  0.78503228  0.64285526     0.12900
C1549       C  0.91999103  0.81257835  0.66719856     0.02300
N1550       N  0.96198096  0.83720757  0.61137818    -0.81400
H1551       H  0.93083176  0.83961012  0.55157662     0.17700
C1552       C  0.95125595  0.79781667  0.67797100    -0.26300
C1553       C  0.96490888  0.80516811  0.71067109     0.35800
C1554       C  0.94775107  0.82906612  0.73215502    -0.20300
C1555       C  0.91580515  0.84245230  0.72201830    -0.25500
C1556       C  0.90149134  0.83373791  0.69022881     0.27100
H1557       H  0.96533441  0.78110699  0.66051213     0.12900
N1558       N  0.99674536  0.78963969  0.72140251    -0.82800
H1559       H  0.90195734  0.86008000  0.73877390     0.17800
N1560       N  0.86882856  0.84784091  0.68077808    -0.81400
H1561       H  0.00678072  0.77383608  0.70200764     0.33400
H1562       H  0.99143772  0.77379983  0.74244804     0.37900
H1563       H  0.87070588  0.87421979  0.68288373     0.33400
H1564       H  0.85074925  0.83984930  0.69900108     0.30000
H1565       H  0.97991727  0.82472176  0.59558047     0.33400
H1566       H  0.96154133  0.86299142  0.60431749     0.30000
H1567       H  0.82274624  0.78869659  0.55693299     0.37900
H1568       H  0.81180859  0.80026018  0.59735550     0.33400
C1569       C  0.84175225  0.87802757  0.57044974    -0.20400
C1570       C  0.80996500  0.88576746  0.58653707     0.35900
C1571       C  0.80924897  0.90470021  0.61759998    -0.26300
C1572       C  0.83981296  0.91570834  0.63301334     0.02300
C1573       C  0.87137171  0.90709804  0.61700989     0.27100
C1574       C  0.87178387  0.89009571  0.58557162    -0.25500
N1575       N  0.77863603  0.87510947  0.57084257    -0.82800
H1576       H  0.78484728  0.91088529  0.62978558     0.12900
C1577       C  0.83928720  0.93392008  0.66688643     0.02300
N1578       N  0.90340169  0.91433515  0.63321091    -0.81400
H1579       H  0.89619761  0.88681051  0.57274702     0.17700
C1580       C  0.82069414  0.92056297  0.69487284    -0.26300
C1581       C  0.82534770  0.93301261  0.72849509     0.35800
C1582       C  0.84933807  0.95892315  0.73456468    -0.20300
C1583       C  0.86697782  0.97284897  0.70646756    -0.25500
C1584       C  0.86056650  0.96207190  0.67271516     0.27100
H1585       H  0.80397321  0.89909894  0.69101392     0.12900
N1586       N  0.80717609  0.91782600  0.75668075    -0.82800
H1587       H  0.88581375  0.99221117  0.71056886     0.17800
N1588       N  0.87512332  0.98022323  0.64423269    -0.81400
H1589       H  0.81318509  0.89170830  0.75709837     0.33400
H1590       H  0.78087244  0.92067381  0.75204302     0.37900
H1591       H  0.90156750  0.98212815  0.64809702     0.33400
H1592       H  0.86452630  0.00481319  0.64457356     0.30000
H1593       H  0.91824234  0.92856633  0.61599381     0.33400
H1594       H  0.91634977  0.89122112  0.63779022     0.30000
H1595       H  0.77872895  0.84843432  0.57075733     0.37900
H1596       H  0.75746304  0.88299187  0.58567633     0.33400
C1597       C  0.83614359  0.89030946  0.44285283    -0.20400
C1598       C  0.80460686  0.90119781  0.42839039     0.35900
C1599       C  0.80442601  0.92189495  0.39848928    -0.26300
C1600       C  0.83514616  0.92950970  0.38071392     0.02300
C1601       C  0.86648084  0.91927762  0.39624924     0.27100
C1602       C  0.86648338  0.90150739  0.42746439    -0.25500
N1603       N  0.77289154  0.88881342  0.44198322    -0.82800
H1604       H  0.77994366  0.93048568  0.38840569     0.12900
C1605       C  0.83488705  0.94394596  0.34454700     0.02300
N1606       N  0.89868074  0.92386172  0.37908586    -0.81400
H1607       H  0.89086679  0.89418562  0.43802055     0.17700
C1608       C  0.86157839  0.96548240  0.33377619    -0.26300
C1609       C  0.86864286  0.97121902  0.29873927     0.35800
C1610       C  0.84582006  0.95940939  0.27354838    -0.20300
C1611       C  0.81674371  0.94149280  0.28434878    -0.25500
C1612       C  0.81149204  0.93290777  0.31916274     0.27100
H1613       H  0.87831481  0.97678383  0.35258561     0.12900
N1614       N  0.89904113  0.98911160  0.28907648    -0.82800
H1615       H  0.79866537  0.93254378  0.26541792     0.17800
N1616       N  0.78300413  0.91188617  0.32799629    -0.81400
H1617       H  0.92020338  0.97507597  0.29816396     0.33400
H1618       H  0.89881414  0.01267674  0.30163365     0.37900
H1619       H  0.78483543  0.88943094  0.31356828     0.33400
H1620       H  0.76050473  0.92481365  0.32064620     0.30000
H1621       H  0.91484386  0.93718123  0.39553256     0.33400
H1622       H  0.90938286  0.89970728  0.37483663     0.30000
H1623       H  0.76130323  0.87440657  0.42277909     0.37900
H1624       H  0.75671700  0.90983553  0.44680194     0.33400
C1625       C  0.86165908  0.81807371  0.43143411    -0.20400
C1626       C  0.88913770  0.79594244  0.42086783     0.35900
C1627       C  0.90446742  0.80093086  0.38829179    -0.26300
C1628       C  0.88873436  0.82233039  0.36379573     0.02300
C1629       C  0.85490154  0.83417576  0.37097622     0.27100
C1630       C  0.84103145  0.82978555  0.40408290    -0.25500
N1631       N  0.89562518  0.76375370  0.43745571    -0.82800
H1632       H  0.92738451  0.78643049  0.38129014     0.12900
C1633       C  0.90677571  0.83079896  0.33079889     0.02300
N1634       N  0.83492179  0.85284102  0.34625617    -0.81400
H1635       H  0.81513825  0.83871000  0.40902771     0.17700
C1636       C  0.89159131  0.82250059  0.29933181    -0.26300
C1637       C  0.90599923  0.83290235  0.26791259     0.35800
C1638       C  0.93650770  0.85180278  0.26739106    -0.20300
C1639       C  0.95250330  0.85922557  0.29866230    -0.25500
C1640       C  0.93845595  0.84802831  0.33025700     0.27100
H1641       H  0.86871076  0.80722490  0.29896404     0.12900
N1642       N  0.88972998  0.82382862  0.23627873    -0.82800
H1643       H  0.97661809  0.87247584  0.29857355     0.17800
N1644       N  0.95707224  0.85316043  0.36149361    -0.81400
H1645       H  0.86465983  0.83379117  0.23672746     0.33400
H1646       H  0.88836585  0.79720977  0.23529454     0.37900
H1647       H  0.98045080  0.83980481  0.35936568     0.33400
H1648       H  0.96284566  0.87905064  0.36335361     0.30000
H1649       H  0.82790139  0.83648802  0.32645509     0.33400
H1650       H  0.84987154  0.87234900  0.33600142     0.30000
H1651       H  0.87975770  0.76067063  0.45895921     0.37900
H1652       H  0.92151501  0.76196566  0.44418414     0.33400
C1653       C  0.91481384  0.16452127  0.57272566    -0.20400
C1654       C  0.90340266  0.19240123  0.59308930     0.35900
C1655       C  0.91179745  0.19275714  0.62822496    -0.26300
C1656       C  0.93151160  0.16615273  0.64280922     0.02300
C1657       C  0.94365528  0.13896757  0.62220043     0.27100
C1658       C  0.93418402  0.13809967  0.58797370    -0.25500
N1659       N  0.88208059  0.21954496  0.57961368    -0.82800
H1660       H  0.90252817  0.21355470  0.64431325     0.12900
C1661       C  0.93902553  0.16606163  0.67959375     0.02300
N1662       N  0.96550360  0.11171678  0.63486442    -0.81400
H1663       H  0.94283178  0.11658593  0.57264933     0.17700
C1664       C  0.91646713  0.14931067  0.70199171    -0.26300
C1665       C  0.92667620  0.14069226  0.73552997     0.35800
C1666       C  0.96037284  0.14768538  0.74571195    -0.20300
C1667       C  0.98151063  0.16740313  0.72439893    -0.25500
C1668       C  0.97141601  0.17620896  0.69102256     0.27100
H1669       H  0.89135439  0.14217202  0.69293325     0.12900
N1670       N  0.90284445  0.12594226  0.75955429    -0.82800
H1671       H  0.00585662  0.17614313  0.73402189     0.17800
N1672       N  0.99391438  0.19486471  0.66852330    -0.81400
H1673       H  0.87875734  0.12366679  0.74814007     0.33400
H1674       H  0.89937769  0.14310341  0.77991070     0.37900
H1675       H  0.01647231  0.20110787  0.68135091     0.33400
H1676       H  0.00121947  0.17879493  0.64820766     0.30000
H1677       H  0.98904863  0.11321796  0.62190793     0.33400
H1678       H  0.97077763  0.11380413  0.66107331     0.30000
H1679       H  0.87667257  0.21595109  0.55358933     0.37900
H1680       H  0.89596416  0.24209413  0.58121988     0.33400
C1681       C  0.86859940  0.11130351  0.56108956    -0.20400
C1682       C  0.88417224  0.07955098  0.56900024     0.35900
C1683       C  0.88045186  0.06591787  0.60196001    -0.26300
C1684       C  0.86294653  0.08419662  0.62774797     0.02300
C1685       C  0.84621072  0.11562512  0.61954054     0.27100
C1686       C  0.84780969  0.12776362  0.58569279    -0.25500
N1687       N  0.90670551  0.06282295  0.54493055    -0.82800
H1688       H  0.89384482  0.04225436  0.60813608     0.12900
C1689       C  0.86576638  0.07148508  0.66334833     0.02300
N1690       N  0.82954338  0.13704347  0.64491072    -0.81400
H1691       H  0.83626030  0.15242012  0.57963400     0.17700
C1692       C  0.89862633  0.06828194  0.67778425    -0.26300
C1693       C  0.90309045  0.05919268  0.71244395     0.35800
C1694       C  0.87377042  0.05392938  0.73313620    -0.20300
C1695       C  0.84100009  0.05517453  0.71784516    -0.25500
C1696       C  0.83673466  0.06270718  0.68307012     0.27100
H1697       H  0.92087083  0.07311168  0.66191068     0.12900
N1698       N  0.93701972  0.05567919  0.72650792    -0.82800
H1699       H  0.81817696  0.04962469  0.73282803     0.17800
N1700       N  0.80271692  0.06138283  0.66889552    -0.81400
H1701       H  0.95553826  0.06209021  0.70805595     0.33400
H1702       H  0.94111534  0.02983657  0.73225174     0.37900
H1703       H  0.79414856  0.03639077  0.67201582     0.33400
H1704       H  0.80279054  0.06592531  0.64238313     0.30000
H1705       H  0.84246753  0.16023573  0.64530447     0.33400
H1706       H  0.83171563  0.12711619  0.66973464     0.30000
H1707       H  0.93099145  0.06030364  0.55604509     0.37900
H1708       H  0.89757556  0.03823260  0.54108270     0.33400
C1709       C  0.92584389  0.18058531  0.44339362    -0.20400
C1710       C  0.95819226  0.16693441  0.43364309     0.35900
C1711       C  0.96956660  0.17097102  0.39954588    -0.26300
C1712       C  0.94747556  0.18410290  0.37426867     0.02300
C1713       C  0.91536034  0.19844046  0.38430367     0.27100
C1714       C  0.90594142  0.19844217  0.41906375    -0.25500
N1715       N  0.97736751  0.14551656  0.45704191    -0.82800
H1716       H  0.99406833  0.16016017  0.39169202     0.12900
C1717       C  0.95502757  0.17540073  0.33793659     0.02300
N1718       N  0.89010453  0.20929328  0.35972677    -0.81400
H1719       H  0.88055486  0.20780298  0.42628243     0.17700
C1720       C  0.95784879  0.14079451  0.32870992    -0.26300
C1721       C  0.96101197  0.13077770  0.29414611     0.35800
C1722       C  0.96151066  0.15590490  0.26821537    -0.20300
C1723       C  0.96120457  0.19070378  0.27799831    -0.25500
C1724       C  0.95855275  0.20051309  0.31249621     0.27100
H1725       H  0.95741026  0.12146583  0.34856570     0.12900
N1726       N  0.96397113  0.09529031  0.28573831    -0.82800
H1727       H  0.96337512  0.21077068  0.25884775     0.17800
N1728       N  0.96055243  0.23584396  0.32160913    -0.81400
H1729       H  0.98550387  0.08520011  0.29836328     0.33400
H1730       H  0.94237680  0.08299588  0.29554407     0.37900
H1731       H  0.98433089  0.24474086  0.31317420     0.33400
H1732       H  0.94161983  0.24936241  0.30799149     0.30000
H1733       H  0.88559050  0.18921010  0.34275784     0.33400
H1734       H  0.89931796  0.23007680  0.34587435     0.30000
H1735       H  0.99959429  0.13596179  0.44503548     0.37900
H1736       H  0.96278657  0.12437610  0.46372779     0.33400
C1737       C  0.85542749  0.06271761  0.26974839    -0.20400
C1738       C  0.87043712  0.09468334  0.27497418     0.35900
C1739       C  0.86802818  0.10979183  0.30725305    -0.26300
C1740       C  0.85088080  0.09343117  0.33432373     0.02300
C1741       C  0.83375693  0.06267333  0.32867808     0.27100
C1742       C  0.83506659  0.04825006  0.29574537    -0.25500
N1743       N  0.88749932  0.11260599  0.24780480    -0.82800
H1744       H  0.88107307  0.13357001  0.31177506     0.12900
C1745       C  0.85769930  0.10508423  0.36921377     0.02300
N1746       N  0.81652381  0.04564847  0.35660039    -0.81400
H1747       H  0.82152684  0.02489204  0.29078493     0.17700
C1748       C  0.83296337  0.12358503  0.38803506    -0.26300
C1749       C  0.84064297  0.13613666  0.42084940     0.35800
C1750       C  0.87413669  0.13074940  0.43409238    -0.20300
C1751       C  0.89873177  0.11311882  0.41419490    -0.25500
C1752       C  0.89025289  0.09844652  0.38296388     0.27100
H1753       H  0.80774101  0.12824297  0.37719950     0.12900
N1754       N  0.81417607  0.15429849  0.43960434    -0.82800
H1755       H  0.92433515  0.10905356  0.42378490     0.17800
N1756       N  0.91423187  0.07613076  0.36532799    -0.81400
H1757       H  0.80761289  0.17608145  0.42527784     0.33400
H1758       H  0.82294258  0.16299406  0.46330160     0.37900
H1759       H  0.93685667  0.07319272  0.37947818     0.33400
H1760       H  0.90337869  0.05192470  0.36427118     0.30000
H1761       H  0.80524903  0.02324289  0.34790370     0.33400
H1762       H  0.83512075  0.03810397  0.37453028     0.30000
H1763       H  0.87000917  0.11673861  0.22784702     0.37900
H1764       H  0.90759975  0.09716931  0.23861850     0.33400
C1765       C  0.85345245  0.08930223  0.49173728    -0.20400
C1766       C  0.87029329  0.06123052  0.47538053     0.35900
C1767       C  0.85311173  0.03076889  0.47207835    -0.26300
C1768       C  0.82532359  0.02370786  0.49385089     0.02300
C1769       C  0.80836793  0.05081987  0.51088231     0.27100
C1770       C  0.82112249  0.08407611  0.50729712    -0.25500
N1771       N  0.90664987  0.05973070  0.46876335    -0.82800
H1772       H  0.86634131  0.00984508  0.45902978     0.12900
C1773       C  0.82309871  0.98781278  0.50550574     0.02300
N1774       N  0.78042889  0.04437353  0.53400731    -0.81400
H1775       H  0.80814895  0.10499234  0.52048490     0.17700
C1776       C  0.85413880  0.97203731  0.51538502    -0.26300
C1777       C  0.85806793  0.93679401  0.51501109     0.35800
C1778       C  0.82900741  0.91656064  0.50996387    -0.20300
C1779       C  0.79659408  0.93222793  0.50583771    -0.25500
C1780       C  0.79369217  0.96787572  0.50176396     0.27100
H1781       H  0.87663795  0.98735235  0.51931014     0.12900
N1782       N  0.89176940  0.92154608  0.51822178    -0.82800
H1783       H  0.77405053  0.91667583  0.50364053     0.17800
N1784       N  0.76164334  0.98332797  0.49204182    -0.81400
H1785       H  0.91027760  0.94009996  0.52226924     0.33400
H1786       H  0.89809720  0.90972170  0.49493878     0.37900
H1787       H  0.75407466  0.97247191  0.46877160     0.33400
H1788       H  0.74339777  0.97715201  0.51083938     0.30000
H1789       H  0.78736985  0.05277278  0.55851755     0.33400
H1790       H  0.75929519  0.05905417  0.52593209     0.30000
H1791       H  0.91905852  0.08201302  0.47561132     0.37900
H1792       H  0.91103137  0.05409278  0.44278767     0.33400
C1793       C  0.19019988  0.13531421  0.57304954    -0.20400
C1794       C  0.18637015  0.15837415  0.60093446     0.35900
C1795       C  0.18269206  0.14517452  0.63453953    -0.26300
C1796       C  0.18777198  0.11015401  0.64094822     0.02300
C1797       C  0.20488168  0.09085177  0.61517701     0.27100
C1798       C  0.20819211  0.10498380  0.58203642    -0.25500
N1799       N  0.19283137  0.19410159  0.59665727    -0.82800
H1800       H  0.17575343  0.16214721  0.65531830     0.12900
C1801       C  0.17552908  0.09444067  0.67377706     0.02300
N1802       N  0.21895720  0.05722827  0.62148325    -0.81400
H1803       H  0.22372489  0.09109507  0.56367920     0.17700
C1804       C  0.15254663  0.06707371  0.67249900    -0.26300
C1805       C  0.14072225  0.05089313  0.70281431     0.35800
C1806       C  0.15360689  0.06116687  0.73489782    -0.20300
C1807       C  0.17594690  0.08905669  0.73610403    -0.25500
C1808       C  0.18675054  0.10581695  0.70602575     0.27100
H1809       H  0.14411605  0.05808853  0.64761233     0.12900
N1810       N  0.11737335  0.02297577  0.70093137    -0.82800
H1811       H  0.18604663  0.09726030  0.76064654     0.17800
N1812       N  0.21053931  0.13319356  0.70827122    -0.81400
H1813       H  0.11126404  0.01792106  0.67526483     0.33400
H1814       H  0.09449487  0.03080455  0.71298300     0.37900
H1815       H  0.19944377  0.15228625  0.72369878     0.33400
H1816       H  0.23260260  0.12399352  0.72066108     0.30000
H1817       H  0.24534676  0.05807756  0.61655205     0.33400
H1818       H  0.21651685  0.05029396  0.64737237     0.30000
H1819       H  0.19272298  0.20088750  0.57056562     0.37900
H1820       H  0.17425729  0.20837988  0.60990866     0.33400
C1821       C  0.07617975  0.14857137  0.74547169    -0.20400
C1822       C  0.05715118  0.12987991  0.72114011     0.35900
C1823       C  0.05982872  0.13772000  0.68584622    -0.26300
C1824       C  0.08469337  0.16005649  0.67292577     0.02300
C1825       C  0.10440337  0.17815092  0.69739067     0.27100
C1826       C  0.09952830  0.17266421  0.73307544    -0.25500
N1827       N  0.03460404  0.10321343  0.73223940    -0.82800
H1828       H  0.04209567  0.12604873  0.66847794     0.12900
C1829       C  0.09109397  0.16264022  0.63437607     0.02300
N1830       N  0.12928215  0.20249510  0.68649999    -0.81400
H1831       H  0.11403648  0.18761946  0.75116421     0.17700
C1832       C  0.09825201  0.19451949  0.61900004    -0.26300
C1833       C  0.11326086  0.19701592  0.58584684     0.35800
C1834       C  0.12004244  0.16681632  0.56663148    -0.20300
C1835       C  0.10691381  0.13622967  0.57947740    -0.25500
C1836       C  0.09350025  0.13335124  0.61274787     0.27100
H1837       H  0.09428892  0.21772690  0.63366710     0.12900
N1838       N  0.12440375  0.22999892  0.57469675    -0.82800
H1839       H  0.10868683  0.11352949  0.56392892     0.17800
N1840       N  0.08448154  0.09969889  0.62368656    -0.81400
H1841       H  0.10259895  0.24480684  0.56899437     0.33400
H1842       H  0.13980083  0.22818503  0.55272803     0.37900
H1843       H  0.05780959  0.09772012  0.62425675     0.33400
H1844       H  0.09487370  0.09447682  0.64784340     0.30000
H1845       H  0.12174487  0.22633235  0.69626157     0.33400
H1846       H  0.15274848  0.19591108  0.69784703     0.30000
H1847       H  0.02205468  0.09244092  0.71126384     0.37900
H1848       H  0.04986464  0.08378420  0.74302917     0.33400
C1849       C  0.04880682  0.13872952  0.27004487    -0.20400
C1850       C  0.05925417  0.10976836  0.28933771     0.35900
C1851       C  0.07133276  0.11394503  0.32323337    -0.26300
C1852       C  0.07172867  0.14624796  0.33907203     0.02300
C1853       C  0.05860707  0.17468229  0.32074695     0.27100
C1854       C  0.04821401  0.17079602  0.28639213    -0.25500
N1855       N  0.05761525  0.07627916  0.27463885    -0.82800
H1856       H  0.08117709  0.09186766  0.33706780     0.12900
C1857       C  0.08679042  0.15015399  0.37428270     0.02300
N1858       N  0.05560102  0.20743158  0.33720216    -0.81400
H1859       H  0.03913313  0.19314068  0.27243382     0.17700
C1860       C  0.11103694  0.17577446  0.38042592    -0.26300
C1861       C  0.12719820  0.17913341  0.41259928     0.35800
C1862       C  0.11982897  0.15563034  0.43925813    -0.20300
C1863       C  0.09498118  0.13072055  0.43318168    -0.25500
C1864       C  0.07802239  0.12801917  0.40154471     0.27100
H1865       H  0.11817459  0.19295433  0.35974457     0.12900
N1866       N  0.15088126  0.20648525  0.41705653    -0.82800
H1867       H  0.09018984  0.11170924  0.45272605     0.17800
N1868       N  0.05270914  0.10213804  0.39682822    -0.81400
H1869       H  0.17099412  0.20298183  0.39940870     0.33400
H1870       H  0.16163359  0.20611983  0.44162533     0.37900
H1871       H  0.04890884  0.08834536  0.41963405     0.33400
H1872       H  0.02935134  0.11415833  0.39110209     0.30000
H1873       H  0.04583973  0.22580588  0.32012101     0.33400
H1874       H  0.03761347  0.20523143  0.35718854     0.30000
H1875       H  0.07549726  0.07522021  0.25454223     0.37900
H1876       H  0.06499801  0.05771506  0.29265419     0.33400
C1877       C  0.17043527  0.10367909  0.44542877    -0.20400
C1878       C  0.19191516  0.11324279  0.41804462     0.35900
C1879       C  0.18860666  0.09762051  0.38575488    -0.26300
C1880       C  0.16159615  0.07507965  0.37897654     0.02300
C1881       C  0.14231998  0.06287172  0.40776797     0.27100
C1882       C  0.14856021  0.07601139  0.44090822    -0.25500
N1883       N  0.21648968  0.13956761  0.42272626    -0.82800
H1884       H  0.20616445  0.10485960  0.36538797     0.12900
C1885       C  0.15347008  0.06625557  0.34193643     0.02300
N1886       N  0.11500088  0.03906037  0.40347964    -0.81400
H1887       H  0.13285535  0.06788056  0.46249398     0.17700
C1888       C  0.14139987  0.03372602  0.33325460    -0.26300
C1889       C  0.13232645  0.02541597  0.29934099     0.35800
C1890       C  0.14023051  0.04787976  0.27231652    -0.20300
C1891       C  0.15201812  0.08047677  0.28027820    -0.25500
C1892       C  0.15686827  0.09045212  0.31472827     0.27100
H1893       H  0.13878941  0.01435646  0.35267549     0.12900
N1894       N  0.11531545  0.99406626  0.29232982    -0.82800
H1895       H  0.15665539  0.09862116  0.25967258     0.17800
N1896       N  0.16423112  0.12544957  0.32178075    -0.81400
H1897       H  0.09103209  0.00008890  0.28256466     0.33400
H1898       H  0.11132134  0.98049578  0.31517849     0.37900
H1899       H  0.14424652  0.14063703  0.31192325     0.33400
H1900       H  0.18673739  0.13172969  0.30854476     0.30000
H1901       H  0.10332621  0.03332739  0.42709618     0.33400
H1902       H  0.09619811  0.05071556  0.38816729     0.30000
H1903       H  0.21152534  0.15874243  0.40457836     0.37900
H1904       H  0.24083404  0.12928346  0.41720200     0.33400
C1905       C  0.94541480  0.20362615  0.51409726    -0.20400
C1906       C  0.97388306  0.19897374  0.53672497     0.35900
C1907       C  0.99664256  0.22591896  0.54096571    -0.26300
C1908       C  0.00386902  0.24479343  0.51108699     0.02300
C1909       C  0.97594179  0.25201506  0.48929844     0.27100
C1910       C  0.94534290  0.23351384  0.49345441    -0.25500
N1911       N  0.98785283  0.16576289  0.54465080    -0.82800
H1912       H  0.01783654  0.22130382  0.55853375     0.12900
C1913       C  0.03666278  0.23279775  0.49497764     0.02300
N1914       N  0.98013470  0.27464754  0.46063461    -0.81400
H1915       H  0.92378404  0.23945663  0.47691586     0.17700
C1916       C  0.03709721  0.19799697  0.48700316    -0.26300
C1917       C  0.06514207  0.17758269  0.49542431     0.35800
C1918       C  0.09726999  0.19303203  0.49911963    -0.20300
C1919       C  0.09885196  0.22900300  0.49806582    -0.25500
C1920       C  0.06824896  0.24898036  0.49976167     0.27100
H1921       H  0.01314175  0.18576160  0.48313827     0.12900
N1922       N  0.05892258  0.14253407  0.50449335    -0.82800
H1923       H  0.12352848  0.24125000  0.49890116     0.17800
N1924       N  0.06907062  0.28485230  0.50705432    -0.81400
H1925       H  0.04647376  0.13067115  0.48422836     0.33400
H1926       H  0.08157694  0.12888014  0.50962013     0.37900
H1927       H  0.09444823  0.29258302  0.50998502     0.33400
H1928       H  0.05692034  0.28876769  0.53085725     0.30000
H1929       H  0.96106907  0.29367564  0.46236223     0.33400
H1930       H  0.97596633  0.26081131  0.43807790     0.30000
H1931       H  0.97408575  0.14610913  0.53356777     0.37900
H1932       H  0.99085515  0.16309865  0.57128039     0.33400
C1933       C  0.13392802  0.80340006  0.56217920    -0.20400
C1934       C  0.15502836  0.79836469  0.59156419     0.35900
C1935       C  0.14015064  0.80079381  0.62472951    -0.26300
C1936       C  0.10433039  0.80414153  0.62865504     0.02300
C1937       C  0.08409256  0.79647868  0.60020821     0.27100
C1938       C  0.09936920  0.79406254  0.56759290    -0.25500
N1939       N  0.19041693  0.78804044  0.58842105    -0.82800
H1940       H  0.15658074  0.80060538  0.64701229     0.12900
C1941       C  0.08811793  0.81537877  0.66169913     0.02300
N1942       N  0.04809852  0.79087436  0.60433283    -0.81400
H1943       H  0.08330176  0.78462382  0.54772850     0.17700
C1944       C  0.06626262  0.84438925  0.66182046    -0.26300
C1945       C  0.05205882  0.85754490  0.69271890     0.35800
C1946       C  0.05895332  0.84062687  0.72417591    -0.20300
C1947       C  0.07998818  0.81084549  0.72358945    -0.25500
C1948       C  0.09430369  0.79797653  0.69278944     0.27100
H1949       H  0.06093303  0.85733529  0.63765983     0.12900
N1950       N  0.03011358  0.88737648  0.69198371    -0.82800
H1951       H  0.08521118  0.79724715  0.74740153     0.17800
N1952       N  0.11477714  0.76709275  0.69289639    -0.81400
H1953       H  0.02623436  0.89555872  0.66659392     0.33400
H1954       H  0.04311655  0.90698964  0.70426856     0.37900
H1955       H  0.11687662  0.75725801  0.71789685     0.33400
H1956       H  0.10176971  0.74894051  0.67847547     0.30000
H1957       H  0.03528317  0.80792940  0.58796506     0.33400
H1958       H  0.04301536  0.76616515  0.59587675     0.30000
H1959       H  0.19818116  0.78794763  0.56259276     0.37900
H1960       H  0.20552947  0.80487227  0.60220565     0.33400
C1961       C  0.17594557  0.86575089  0.56815186    -0.20400
C1962       C  0.20861764  0.86824097  0.58360972     0.35900
C1963       C  0.21102392  0.87980989  0.61799362    -0.26300
C1964       C  0.18168481  0.89065621  0.63637388     0.02300
C1965       C  0.14976219  0.89190669  0.61954040     0.27100
C1966       C  0.14709297  0.87905821  0.58587830    -0.25500
N1967       N  0.23906349  0.85848223  0.56471988    -0.82800
H1968       H  0.23576554  0.88026584  0.63055420     0.12900
C1969       C  0.18406833  0.90129440  0.67309425     0.02300
N1970       N  0.12032901  0.90685755  0.63659300    -0.81400
H1971       H  0.12227606  0.87901013  0.57343311     0.17700
C1972       C  0.18765826  0.93587805  0.68093231    -0.26300
C1973       C  0.18416872  0.94763792  0.71507887     0.35800
C1974       C  0.17515141  0.92453042  0.74177918    -0.20300
C1975       C  0.17412291  0.88956197  0.73418395    -0.25500
C1976       C  0.17884323  0.87784349  0.70018856     0.27100
H1977       H  0.19244093  0.95384811  0.66020711     0.12900
N1978       N  0.18975636  0.98297273  0.72267277    -0.82800
H1979       H  0.16823960  0.87134552  0.75438127     0.17800
N1980       N  0.17735923  0.84213024  0.69313883    -0.81400
H1981       H  0.21096492  0.98409145  0.73898378     0.33400
H1982       H  0.19631635  0.99641361  0.70029819     0.37900
H1983       H  0.19664159  0.82978478  0.70733508     0.33400
H1984       H  0.15376336  0.83345586  0.70223269     0.30000
H1985       H  0.09869972  0.90578698  0.62083996     0.33400
H1986       H  0.11517948  0.89231478  0.65857461     0.30000
H1987       H  0.23785059  0.83261722  0.55859138     0.37900
H1988       H  0.26087391  0.86146165  0.57990310     0.33400
C1989       C  0.04043383  0.85607186  0.27306449    -0.20400
C1990       C  0.04069665  0.82479123  0.29160091     0.35900
C1991       C  0.05329130  0.82392321  0.32536811    -0.26300
C1992       C  0.06560022  0.85336620  0.34119576     0.02300
C1993       C  0.06274294  0.88490064  0.32374919     0.27100
C1994       C  0.04990939  0.88602339  0.29008261    -0.25500
N1995       N  0.02882917  0.79388187  0.27608367    -0.82800
H1996       H  0.05447428  0.79983218  0.33918630     0.12900
C1997       C  0.08446217  0.84946580  0.37417599     0.02300
N1998       N  0.07452474  0.91560745  0.33924176    -0.81400
H1999       H  0.04916961  0.91030835  0.27661433     0.17700
C2000       C  0.11069109  0.82441753  0.37609943    -0.26300
C2001       C  0.12898062  0.81852271  0.40648297     0.35800
C2002       C  0.12216979  0.83943904  0.43530505    -0.20300
C2003       C  0.09608218  0.86466075  0.43345351    -0.25500
C2004       C  0.07643554  0.86920826  0.40355649     0.27100
H2005       H  0.11694647  0.80903015  0.35368444     0.12900
N2006       N  0.15438843  0.79147611  0.40690745    -0.82800
H2007       H  0.09114126  0.88089739  0.45555138     0.17800
N2008       N  0.04832098  0.89344136  0.40308237    -0.81400
H2009       H  0.14176308  0.76861701  0.40224954     0.33400
H2010       H  0.16557675  0.78877333  0.43114709     0.37900
H2011       H  0.02588065  0.87996380  0.39866617     0.33400
H2012       H  0.04540769  0.90522288  0.42710776     0.30000
H2013       H  0.09315471  0.92589311  0.32304279     0.33400
H2014       H  0.05391273  0.93301695  0.34021971     0.30000
H2015       H  0.03195016  0.77311897  0.29285776     0.37900
H2016       H  0.00241160  0.79686777  0.27217644     0.33400
C2017       C  0.18245056  0.87790511  0.43761656    -0.20400
C2018       C  0.20269502  0.86201289  0.41141366     0.35900
C2019       C  0.20242561  0.87542796  0.37756471    -0.26300
C2020       C  0.18374424  0.90529933  0.36934242     0.02300
C2021       C  0.16614051  0.92268471  0.39610764     0.27100
C2022       C  0.16511553  0.90867218  0.42933208    -0.25500
N2023       N  0.22231682  0.83126286  0.41774268    -0.82800
H2024       H  0.21619841  0.86187935  0.35731916     0.12900
C2025       C  0.17912842  0.91581334  0.33249266     0.02300
N2026       N  0.14772822  0.95398813  0.38999819    -0.81400
H2027       H  0.14813199  0.92068837  0.44787493     0.17700
C2028       C  0.15681294  0.89675572  0.31196139    -0.26300
C2029       C  0.14689217  0.90811425  0.27884966     0.35800
C2030       C  0.15861154  0.93960769  0.26646782    -0.20300
C2031       C  0.18404659  0.95660565  0.28513312    -0.25500
C2032       C  0.19414528  0.94544542  0.31813189     0.27100
H2033       H  0.14621408  0.87342572  0.32229084     0.12900
N2034       N  0.12522004  0.88772064  0.25764236    -0.82800
H2035       H  0.19544613  0.97938217  0.27434021     0.17800
N2036       N  0.21913688  0.96502923  0.33628475    -0.81400
H2037       H  0.11915440  0.86500790  0.27035459     0.33400
H2038       H  0.13938563  0.88066496  0.23573346     0.37900
H2039       H  0.24188623  0.96426466  0.32182850     0.33400
H2040       H  0.22499929  0.95407216  0.36013943     0.30000
H2041       H  0.12996221  0.95018758  0.37038855     0.33400
H2042       H  0.16543999  0.97205774  0.38186570     0.30000
H2043       H  0.22122550  0.82429096  0.44372462     0.37900
H2044       H  0.24804293  0.83658258  0.41251545     0.33400
C2045       C  0.18916868  0.90451960  0.50802010    -0.20400
C2046       C  0.22195874  0.91877223  0.50694408     0.35900
C2047       C  0.22521369  0.95393374  0.51291051    -0.26300
C2048       C  0.19579497  0.97490700  0.51739526     0.02300
C2049       C  0.16296998  0.96043009  0.51464441     0.27100
C2050       C  0.16012760  0.92540054  0.51241968    -0.25500
N2051       N  0.25155053  0.89797375  0.49925560    -0.82800
H2052       H  0.25056804  0.96484134  0.51349945     0.12900
C2053       C  0.19869316  0.01213027  0.52217558     0.02300
N2054       N  0.13242403  0.98122535  0.51224864    -0.81400
H2055       H  0.13472764  0.91443129  0.51174009     0.17700
C2056       C  0.22056809  0.03095007  0.50062001    -0.26300
C2057       C  0.21664720  0.06651804  0.49801568     0.35800
C2058       C  0.18829909  0.08267527  0.51419750    -0.20300
C2059       C  0.16781721  0.06373638  0.53689831    -0.25500
C2060       C  0.17553177  0.02982918  0.54410503     0.27100
H2061       H  0.23981724  0.01811099  0.48485967     0.12900
N2062       N  0.24115540  0.08597432  0.47902544    -0.82800
H2063       H  0.14753695  0.07603243  0.55139000     0.17800
N2064       N  0.16021320  0.01447404  0.57414467    -0.81400
H2065       H  0.24303229  0.07578815  0.45420078     0.33400
H2066       H  0.26503256  0.08240773  0.49076392     0.37900
H2067       H  0.13356906  0.01459662  0.57130472     0.33400
H2068       H  0.16880364  0.98929917  0.57766754     0.30000
H2069       H  0.12106700  0.97654597  0.48841059     0.33400
H2070       H  0.11527110  0.97335291  0.53143036     0.30000
H2071       H  0.26283577  0.90755011  0.47676588     0.37900
H2072       H  0.26915158  0.90077245  0.51923204     0.33400
C2073       C  0.09235023  0.81513650  0.49619452    -0.20400
C2074       C  0.07843152  0.78603776  0.48067877     0.35900
C2075       C  0.04257545  0.78248432  0.48030944    -0.26300
C2076       C  0.02113873  0.80720402  0.49583798     0.02300
C2077       C  0.03543846  0.83543422  0.51253038     0.27100
C2078       C  0.07074307  0.83981545  0.51149749    -0.25500
N2079       N  0.10073234  0.76040095  0.46587389    -0.82800
H2080       H  0.03130685  0.76087332  0.46751778     0.12900
C2081       C  0.98374358  0.80583634  0.49167251     0.02300
N2082       N  0.01402015  0.85972875  0.53048085    -0.81400
H2083       H  0.08158796  0.86205791  0.52361120     0.17700
C2084       C  0.96460049  0.77968782  0.50693591    -0.26300
C2085       C  0.92848748  0.78154493  0.50752891     0.35800
C2086       C  0.91162327  0.81062328  0.49283268    -0.20300
C2087       C  0.93147866  0.83532084  0.47627140    -0.25500
C2088       C  0.96689174  0.83281622  0.47472607     0.27100
H2089       H  0.97773056  0.75845764  0.51942829     0.12900
N2090       N  0.91003935  0.75375649  0.52276514    -0.82800
H2091       H  0.91956207  0.85768827  0.46549777     0.17800
N2092       N  0.98585036  0.85846886  0.45674004    -0.81400
H2093       H  0.91634823  0.75248028  0.54889302     0.33400
H2094       H  0.88354308  0.75789906  0.52125642     0.37900
H2095       H  0.97756501  0.85882838  0.43117476     0.33400
H2096       H  0.97956280  0.88220566  0.46753180     0.30000
H2097       H  0.02195674  0.86049724  0.55615116     0.33400
H2098       H  0.01812319  0.88384069  0.51971454     0.30000
H2099       H  0.11539703  0.74982567  0.48583811     0.37900
H2100       H  0.08636502  0.74056540  0.45567025     0.33400
loop_ 
_geom_bond_atom_site_label_1 
_geom_bond_atom_site_label_2 
_geom_bond_distance 
_geom_bond_site_symmetry_2 
_ccdc_geom_bond_type 
C1            C2   1.433       .  A
C1            C6   1.437       .  A
C1         C1933   1.549       .  S
C2            C3   1.419       .  A
C2         C2073   1.471       .  S
C3            C4   1.407       .  A
C3         C2002   1.494       .  S
C4            C5   1.419       .  A
C4         C2017   1.517       .  S
C5            C6   1.433       .  A
C5         C2045   1.468       .  S
C6         C1961   1.511       .  S
C7            C8   1.413       .  A
C7           C12   1.420       .  A
C7         C1862   1.513       .  S
C8            C9   1.420       .  A
C8         C1877   1.503       .  S
C9           C10   1.442       .  A
C9         C2058   1.483       .  S
C10          C11   1.443       .  A
C10        C1793   1.552       .  S
C11          C12   1.431       .  A
C11        C1834   1.514       .  S
C12        C1918   1.484       .  S
C13          C14   1.426       .  A
C13          C18   1.423       .  A
C13        C1709   1.484       .  S
C14          C15   1.423       .  A
C14        C1905   1.519       .  S
C15          C16   1.422       .  A
C15        C1653   1.485       .  S
C16          C17   1.402       .  A
C16        C1681   1.485       .  S
C17          C18   1.405       .  A
C17        C1765   1.496       .  S
C18        C1750   1.488       .  S
C19          C20   1.431       .  A
C19          C24   1.420       .  A
C19        C1541   1.504       .  S
C20          C21   1.442       .  A
C20        C2086   1.492       .  S
C21          C22   1.447       .  A
C21        C1625   1.551       .  S
C22          C23   1.423       .  A
C22        C1597   1.511       .  S
C23          C24   1.412       .  A
C23        C1778   1.485       .  S
C24        C1569   1.511       .  S
C25          C26   1.417       .  A
C25          C30   1.420       .  A
C25        C1401   1.501       .  S
C26          C27   1.414       .  A
C26        C1513   1.488       .  S
C27          C28   1.412       .  A
C27        C1470   1.474       .  S
C28          C29   1.402       .  A
C28        C1442   1.491       .  S
C29          C30   1.412       .  A
C29        C1485   1.482       .  S
C30        C1386   1.484       .  S
C31          C32   1.430       .  A
C31          C36   1.406       .  A
C31        C1302   1.514       .  S
C32          C33   1.451       .  A
C32        C1317   1.487       .  S
C33          C34   1.447       .  A
C33        C1526   1.553       .  S
C34          C35   1.422       .  A
C34        C1261   1.502       .  S
C35          C36   1.408       .  A
C35        C1246   1.493       .  S
C36        C1345   1.489       .  S
C37          C38   1.447       .  A
C37          C42   1.441       .  A
C37        C1190   1.559       .  S
C38          C39   1.443       .  A
C38        C1149   1.511       .  S
C39          C40   1.418       .  A
C39        C1498   1.492       .  S
C40          C41   1.412       .  A
C40        C1093   1.520       .  S
C41          C42   1.426       .  A
C41        C1121   1.496       .  S
C42        C1218   1.488       .  S
C43          C44   1.429       .  A
C43          C48   1.441       .  A
C43        C1065   1.501       .  S
C44          C45   1.420       .  A
C44        C1050   1.494       .  S
C45          C46   1.413       .  A
C45        C1358   1.507       .  S
C46          C47   1.434       .  A
C46         C981   1.517       .  S
C47          C48   1.440       .  A
C47        C1009   1.480       .  S
C48        C1205   1.555       .  S
C49          C50   1.413       .  A
C49          C54   1.428       .  A
C49         C869   1.515       .  S
C50          C51   1.409       .  A
C50         C966   1.485       .  S
C51          C52   1.422       .  A
C51         C813   1.487       .  S
C52          C53   1.429       .  A
C52         C841   1.520       .  S
C53          C54   1.441       .  A
C53         C938   1.505       .  S
C54         C897   1.496       .  S
C55          C56   1.419       .  A
C55          C60   1.423       .  A
C55         C701   1.501       .  S
C56          C57   1.414       .  A
C56         C925   1.480       .  S
C57          C58   1.416       .  A
C57         C770   1.502       .  S
C58          C59   1.414       .  A
C58         C742   1.490       .  S
C59          C60   1.423       .  A
C59         C785   1.487       .  S
C60         C686   1.500       .  S
C61          C62   1.440       .  A
C61          C66   1.411       .  A
C61         C561   1.508       .  S
C62          C63   1.453       .  A
C62         C533   1.494       .  S
C63          C64   1.443       .  A
C63         C798   1.556       .  S
C64          C65   1.428       .  A
C64         C602   1.512       .  S
C65          C66   1.414       .  A
C65         C617   1.485       .  S
C66         C645   1.514       .  S
C67          C68   1.451       .  A
C67          C72   1.426       .  A
C67         C477   1.494       .  S
C68          C69   1.445       .  A
C68         C953   1.545       .  S
C69          C70   1.428       .  A
C69         C421   1.517       .  S
C70          C71   1.424       .  A
C70         C449   1.509       .  S
C71          C72   1.417       .  A
C71         C658   1.484       .  S
C72         C505   1.532       .  S
O73          C81   1.275       .  A
O73         Co93   1.922       .  S
O74          C82   1.274       .  A
O74         Co94   1.998       .  S
O75          C83   1.274       .  A
O75         Co95   2.030       .  S
O76          C84   1.286       .  A
O76         Co96   2.042       .  S
O77          C83   1.262       .  A
O77         Co94   1.990   1_565  S
O78          C84   1.273       .  A
O78         Co93   1.974   1_545  S
O79          C82   1.272       .  A
O79         Co96   2.004       .  S
O80          C81   1.284       .  A
O80         Co95   2.058       .  S
C81         C342   1.471       .  S
C82         C258   1.481       .  S
C83         C170   1.489       .  S
C84         C110   1.483       .  S
O85          C98   1.269       .  A
O85         Co93   2.038   1_545  S
O86          C99   1.281       .  A
O86         Co94   2.047   1_565  S
O87         C100   1.267       .  A
O87         Co95   1.928       .  S
O88         C101   1.265       .  A
O88         Co96   1.988       .  S
O89         C101   1.268       .  A
O89         Co94   2.023       .  S
O90         C100   1.288       .  A
O90         Co93   2.094       .  S
O91          C98   1.253       .  A
O91         Co96   1.952       .  S
O92          C99   1.251       .  A
O92         Co95   1.935       .  S
Co93         O97   2.051   1_565  S
Co94         O97   2.065       .  S
Co95         O97   2.008   1_565  S
Co96         O97   2.009       .  S
C98        C1806   1.484       .  S
C99        C1037   1.459       .  S
C100       C1974   1.492       .  S
C101       C1289   1.495       .  S
O102        C110   1.280       .  A
O102       Co122   1.922       .  S
O103        C111   1.260       .  A
O103       Co123   1.945   1_655  S
O104        C112   1.270       .  A
O104       Co124   2.014       .  S
O105        C113   1.281       .  A
O105       Co125   2.033       .  S
O106        C112   1.251       .  A
O106       Co123   1.957       .  S
O107        C113   1.277       .  A
O107       Co122   2.007   1_655  S
O108        C111   1.274       .  A
O108       Co125   2.003       .  S
O109        C110   1.292       .  A
O109       Co124   2.092       .  S
C111        C314   1.444       .  S
C112        C256   1.453       .  S
C113        C371   1.510       .  S
O114        C127   1.275       .  A
O114       Co122   2.031   1_655  S
O115        C128   1.278       .  A
O115       Co123   2.037       .  S
O116        C129   1.270       .  A
O116       Co124   1.921       .  S
O117        C130   1.257       .  A
O117       Co125   1.964       .  S
O118        C130   1.267       .  A
O118       Co123   2.024   1_655  S
O119        C129   1.290       .  A
O119       Co122   2.107       .  S
O120        C127   1.249       .  A
O120       Co125   1.930       .  S
O121        C128   1.265       .  A
O121       Co124   1.962       .  S
Co122       O126   2.033       .  S
Co123       O126   2.050       .  S
Co124       O126   2.008       .  S
Co125       O126   1.998   1_655  S
C127       C1666   1.451       .  S
C128        C882   1.492       .  S
C129       C1821   1.498       .  S
C130        C490   1.489       .  S
O131        C139   1.269       .  A
O131       Co151   1.990   1_455  S
O132        C140   1.265       .  A
O132       Co152   1.983       .  S
O133        C141   1.277       .  A
O133       Co153   2.059       .  S
O134        C142   1.268       .  A
O134       Co154   2.019       .  S
O135        C141   1.262       .  A
O135       Co152   1.990   1_455  S
O136        C142   1.264       .  A
O136       Co151   1.978       .  S
O137        C140   1.271       .  A
O137       Co154   2.015       .  S
O138        C139   1.269       .  A
O138       Co153   2.007       .  S
C139        C226   1.480       .  S
C140        C402   1.478       .  S
C141        C171   1.508       .  S
C142        C286   1.479       .  S
O143        C156   1.277       .  A
O143       Co151   2.072       .  S
O144        C157   1.276       .  A
O144       Co152   2.073   1_455  S
O145        C158   1.251       .  A
O145       Co153   1.952       .  S
O146        C159   1.250       .  A
O146       Co154   1.937       .  S
O147        C159   1.271       .  A
O147       Co152   2.050       .  S
O148        C158   1.267       .  A
O148       Co151   2.027   1_455  S
O149        C156   1.249       .  A
O149       Co154   1.932       .  S
O150        C157   1.240       .  A
O150       Co153   1.900       .  S
Co151       O155   2.142       .  S
Co152       O155   2.152       .  S
Co153       O155   2.084   1_455  S
Co154       O155   2.095       .  S
C156       C1638   1.478       .  S
C157        C673   1.479       .  S
C158       C1989   1.484       .  S
C159        C546   1.490       .  S
O160        C168   1.275       .  A
O160       Co180   2.034       .  S
O161        C169   1.273       .  A
O161       Co181   2.017       .  S
O162        C170   1.267       .  A
O162       Co182   1.996       .  S
O163        C171   1.270       .  A
O163       Co183   2.005   1_554  S
O164        C170   1.267       .  A
O164       Co181   2.020       .  S
O165        C171   1.272       .  A
O165       Co180   2.043       .  S
O166        C169   1.270       .  A
O166       Co183   1.993       .  S
O167        C168   1.265       .  A
O167       Co182   1.987   1_554  S
C168        C229   1.490       .  S
C169        C345   1.486       .  S
O172        C185   1.244       .  A
O172       Co180   1.934       .  S
O173        C186   1.254       .  A
O173       Co181   1.947       .  S
O174        C187   1.275       .  A
O174       Co182   2.076   1_554  S
O175        C188   1.271       .  A
O175       Co183   2.055       .  S
O176        C188   1.250       .  A
O176       Co181   1.936       .  S
O177        C187   1.243       .  A
O177       Co180   1.928       .  S
O178        C185   1.274       .  A
O178       Co183   2.058   1_554  S
O179        C186   1.275       .  A
O179       Co182   2.054       .  S
Co180       O184   2.088   1_554  S
Co181       O184   2.098       .  S
Co182       O184   2.158       .  S
Co183       O184   2.171       .  S
C185        C714   1.472       .  S
C186       C1078   1.499       .  S
C187       C1177   1.491       .  S
C188        C854   1.485       .  S
O189        C197   1.271       .  A
O189       Co209   2.006       .  S
O190        C198   1.274       .  A
O190       Co210   2.007       .  S
O191        C199   1.262       .  A
O191       Co211   1.988       .  S
O192        C200   1.259       .  A
O192       Co212   1.982       .  S
O193        C199   1.267       .  A
O193       Co210   2.023       .  S
O194        C200   1.269       .  A
O194       Co209   2.020       .  S
O195        C198   1.263       .  A
O195       Co212   1.988   1_655  S
O196        C197   1.267       .  A
O196       Co211   1.977   1_455  S
C197        C228   1.469       .  S
C198        C316   1.480       .  S
C199        C284   1.488       .  S
C200        C257   1.481       .  S
O201        C214   1.247       .  A
O201       Co209   1.923       .  S
O202        C215   1.245       .  A
O202       Co210   1.903       .  S
O203        C216   1.268       .  A
O203       Co211   2.047   1_455  S
O204        C217   1.269       .  A
O204       Co212   2.065   1_655  S
O205        C217   1.243       .  A
O205       Co210   1.928       .  S
O206        C216   1.253       .  A
O206       Co209   1.950       .  S
O207        C214   1.278       .  A
O207       Co212   2.064       .  S
O208        C215   1.279       .  A
O208       Co211   2.061       .  S
Co209       O213   2.091       .  S
Co210       O213   2.077   1_655  S
Co211       O213   2.140   1_655  S
Co212       O213   2.162       .  S
C214        C729   1.464       .  S
C215       C1722   1.484       .  S
C216       C1849   1.496       .  S
C217        C589   1.487       .  S
O218        C226   1.259       .  A
O218       Co238   1.986       .  S
O219        C227   1.276       .  A
O219       Co239   2.031       .  S
O220        C228   1.267       .  A
O220       Co240   1.976   1_545  S
O221        C229   1.272       .  A
O221       Co241   2.016       .  S
O222        C228   1.278       .  A
O222       Co239   2.016       .  S
O223        C229   1.265       .  A
O223       Co238   1.997       .  S
O224        C227   1.271       .  A
O224       Co241   1.989   1_545  S
O225        C226   1.265       .  A
O225       Co240   2.016       .  S
C227        C255   1.487       .  S
O230        C243   1.228       .  A
O230       Co238   1.846       .  S
O231        C244   1.251       .  A
O231       Co239   1.962       .  S
O232        C245   1.291       .  A
O232       Co240   2.112       .  S
O233        C246   1.267       .  A
O233       Co241   2.040   1_545  S
O234        C246   1.253       .  A
O234       Co239   1.970       .  S
O235        C245   1.234       .  A
O235       Co238   1.891       .  S
O236        C243   1.285       .  A
O236       Co241   2.061       .  S
O237        C244   1.265       .  A
O237       Co240   2.026   1_545  S
Co238       O242   1.967   1_565  S
Co239       O242   2.053       .  S
Co240       O242   2.129   1_565  S
Co241       O242   2.130   1_565  S
C243       C1162   1.444       .  S
C244       C1890   1.481       .  S
C245       C2030   1.482       .  S
C246       C1429   1.482       .  S
O247        C255   1.265       .  A
O247       Co267   1.990       .  S
O248        C256   1.264       .  A
O248       Co268   1.973   1_556  S
O249        C257   1.270       .  A
O249       Co269   2.014       .  S
O250        C258   1.276       .  A
O250       Co270   2.042       .  S
O251        C257   1.267       .  A
O251       Co268   1.990       .  S
O252        C258   1.260       .  A
O252       Co267   1.968   1_556  S
O253        C256   1.260       .  A
O253       Co270   1.991       .  S
O254        C255   1.272       .  A
O254       Co269   2.020       .  S
O259        C272   1.275       .  A
O259       Co267   2.079   1_556  S
O260        C273   1.271       .  A
O260       Co268   2.044       .  S
O261        C274   1.250       .  A
O261       Co269   1.922       .  S
O262        C275   1.245       .  A
O262       Co270   1.932       .  S
O263        C275   1.277       .  A
O263       Co268   2.063   1_556  S
O264        C274   1.269       .  A
O264       Co267   2.018       .  S
O265        C272   1.240       .  A
O265       Co270   1.899       .  S
O266        C273   1.253       .  A
O266       Co269   1.945       .  S
Co267       O271   2.140       .  S
Co268       O271   2.123       .  S
Co269       O271   2.098       .  S
Co270       O271   2.087   1_556  S
C272       C1330   1.476       .  S
C273        C757   1.489       .  S
C274       C1457   1.467       .  S
C275        C910   1.471       .  S
O276        C284   1.283       .  A
O276       Co296   2.047       .  S
O277        C285   1.288       .  A
O277       Co297   2.088       .  S
O278        C286   1.267       .  A
O278       Co298   1.995   1_565  S
O279        C287   1.283       .  A
O279       Co299   2.019   1_545  S
O280        C286   1.273       .  A
O280       Co297   2.011       .  S
O281        C287   1.267       .  A
O281       Co296   1.985       .  S
O282        C285   1.279       .  A
O282       Co299   1.903       .  S
O283        C284   1.271       .  A
O283       Co298   1.982       .  S
C285        C400   1.468       .  S
C287        C313   1.488       .  S
O288        C301   1.257       .  A
O288       Co296   1.949       .  S
O289        C302   1.269       .  A
O289       Co297   1.962       .  S
O290        C303   1.271       .  A
O290       Co298   2.030       .  S
O291        C304   1.296       .  A
O291       Co299   2.140       .  S
O292        C304   1.271       .  A
O292       Co297   1.930       .  S
O293        C303   1.246       .  A
O293       Co296   1.933       .  S
O294        C301   1.272       .  A
O294       Co299   2.010   1_545  S
O295        C302   1.280       .  A
O295       Co298   2.033   1_565  S
Co296       O300   2.004       .  S
Co297       O300   1.996   1_565  S
Co298       O300   2.050       .  S
Co299       O300   2.006   1_565  S
C301       C1373   1.462       .  S
C302       C1610   1.486       .  S
C303       C1737   1.456       .  S
C304       C1106   1.509       .  S
O305        C313   1.281       .  A
O305       Co325   2.032       .  S
O306        C314   1.285       .  A
O306       Co326   2.063       .  S
O307        C315   1.259       .  A
O307       Co327   1.977   1_556  S
O308        C316   1.281       .  A
O308       Co328   2.009   1_554  S
O309        C315   1.277       .  A
O309       Co326   2.035       .  S
O310        C316   1.272       .  A
O310       Co325   1.979       .  S
O311        C314   1.271       .  A
O311       Co328   1.889       .  S
O312        C313   1.262       .  A
O312       Co327   1.987       .  S
C315        C373   1.481       .  S
O317        C330   1.255       .  A
O317       Co325   1.956       .  S
O318        C331   1.260       .  A
O318       Co326   1.963       .  S
O319        C332   1.276       .  A
O319       Co327   2.049       .  S
O320        C333   1.299       .  A
O320       Co328   2.146       .  S
O321        C333   1.271       .  A
O321       Co326   1.927       .  S
O322        C332   1.243       .  A
O322       Co325   1.917       .  S
O323        C330   1.259       .  A
O323       Co328   1.996   1_554  S
O324        C331   1.278       .  A
O324       Co327   2.046   1_556  S
Co325       O329   1.990       .  S
Co326       O329   1.998   1_556  S
Co327       O329   2.062       .  S
Co328       O329   2.013   1_556  S
C330        C630   1.455       .  S
C331       C1274   1.478       .  S
C332       C1414   1.476       .  S
C333        C518   1.512       .  S
O334        C342   1.279       .  A
O334       Co354   2.041       .  S
O335        C343   1.265       .  A
O335       Co355   2.045       .  S
O336        C344   1.258       .  A
O336       Co356   1.957       .  S
O337        C345   1.265       .  A
O337       Co357   1.988       .  S
O338        C344   1.281       .  A
O338       Co355   2.049       .  S
O339        C345   1.274       .  A
O339       Co354   2.016       .  S
O340        C343   1.239       .  A
O340       Co357   1.928   1_655  S
O341        C342   1.257       .  A
O341       Co356   1.950   1_455  S
C343        C401   1.471       .  S
C344        C374   1.476       .  S
O346        C359   1.264       .  A
O346       Co354   1.992       .  S
O347        C360   1.258       .  A
O347       Co355   1.971       .  S
O348        C361   1.272       .  A
O348       Co356   2.054   1_455  S
O349        C362   1.310       .  A
O349       Co357   2.130   1_655  S
O350        C362   1.275       .  A
O350       Co355   1.874       .  S
O351        C361   1.249       .  A
O351       Co354   1.946       .  S
O352        C359   1.250       .  A
O352       Co357   1.956       .  S
O353        C360   1.271       .  A
O353       Co356   2.029       .  S
Co354       O358   2.071       .  S
Co355       O358   1.995   1_655  S
Co356       O358   2.078   1_655  S
Co357       O358   2.047       .  S
C359        C826   1.459       .  S
C360       C1554   1.480       .  S
C361       C1946   1.498       .  S
C362        C434   1.485       .  S
O363        C371   1.284       .  A
O363       Co383   2.023       .  S
O364        C372   1.246       .  A
O364       Co384   1.988   1_565  S
O365        C373   1.266       .  A
O365       Co385   2.012       .  S
O366        C374   1.276       .  A
O366       Co386   2.031       .  S
O367        C373   1.269       .  A
O367       Co384   1.989       .  S
O368        C374   1.276       .  A
O368       Co383   1.980   1_565  S
O369        C372   1.245       .  A
O369       Co386   2.013       .  S
O370        C371   1.283       .  A
O370       Co385   2.032       .  S
C372        C403   1.480       .  S
O375        C388   1.285       .  A
O375       Co383   2.065   1_565  S
O376        C389   1.260       .  A
O376       Co384   1.996       .  S
O377        C390   1.244       .  A
O377       Co385   1.924       .  S
O378        C391   1.280       .  A
O378       Co386   1.877       .  S
O379        C391   1.314       .  A
O379       Co384   2.145   1_565  S
O380        C390   1.261       .  A
O380       Co383   2.021       .  S
O381        C388   1.265       .  A
O381       Co386   1.947       .  S
O382        C389   1.251       .  A
O382       Co385   1.959       .  S
Co383       O387   2.094       .  S
Co384       O387   2.116       .  S
Co385       O387   2.057       .  S
Co386       O387   2.014   1_565  S
C388       C1582   1.485       .  S
C389       C1233   1.474       .  S
C390       C1694   1.475       .  S
C391        C994   1.498       .  S
O392        C400   1.253       .  A
O392       Co412   1.951   1_554  S
O393        C401   1.253       .  A
O393       Co413   1.965   1_556  S
O394        C402   1.274       .  A
O394       Co414   2.020       .  S
O395        C403   1.276       .  A
O395       Co415   2.036       .  S
O396        C402   1.266       .  A
O396       Co413   1.982       .  S
O397        C403   1.257       .  A
O397       Co412   1.971       .  S
O398        C401   1.267       .  A
O398       Co415   2.026       .  S
O399        C400   1.268       .  A
O399       Co414   2.025       .  S
O404        C417   1.264       .  A
O404       Co412   2.054       .  S
O405        C418   1.260       .  A
O405       Co413   2.022       .  S
O406        C419   1.256       .  A
O406       Co414   1.936       .  S
O407        C420   1.235       .  A
O407       Co415   1.917       .  S
O408        C420   1.288       .  A
O408       Co413   2.104   1_556  S
O409        C419   1.277       .  A
O409       Co412   2.054   1_554  S
O410        C417   1.236       .  A
O410       Co415   1.904       .  S
O411        C418   1.257       .  A
O411       Co414   1.968       .  S
Co412       O416   2.159       .  S
Co413       O416   2.136   1_554  S
Co414       O416   2.105   1_554  S
Co415       O416   2.080       .  S
C417       C1022   1.473       .  S
C418        C574   1.486       .  S
C419       C1134   1.481       .  S
C420        C462   1.492       .  S
C421        C422   1.424       .  A
C421        C426   1.410       .  A
C422        C423   1.405       .  A
C422        N427   1.437       .  S
C423        C424   1.405       .  A
C423        H428   1.084       .  S
C424        C425   1.414       .  A
C424        C429   1.505       .  S
C425        C426   1.415       .  A
C425        N430   1.437       .  S
C426        H431   1.083       .  S
N427        H447   1.043       .  S
N427        H448   1.044       .  S
C429        C432   1.408       .  A
C429        C436   1.414       .  A
N430        H445   1.046       .  S
N430        H446   1.046       .  S
C432        C433   1.410       .  A
C432        H437   1.081       .  S
C433        C434   1.404       .  A
C433        N438   1.439       .  S
C434        C435   1.409       .  A
C435        C436   1.414       .  A
C435        H439   1.084       .  S
C436        N440   1.437       .  S
N438        H441   1.045       .  S
N438        H442   1.044       .  S
N440        H443   1.046       .  S
N440        H444   1.046       .  S
C449        C450   1.421       .  A
C449        C454   1.404       .  A
C450        C451   1.412       .  A
C450        N455   1.438       .  S
C451        C452   1.406       .  A
C451        H456   1.083       .  S
C452        C453   1.414       .  A
C452        C457   1.485       .  S
C453        C454   1.394       .  A
C453        N458   1.440       .  S
C454        H459   1.083       .  S
N455        H475   1.043       .  S
N455        H476   1.045       .  S
C457        C460   1.393       .  A
C457        C464   1.405       .  A
N458        H473   1.046       .  S
N458        H474   1.042       .  S
C460        C461   1.404       .  A
C460        H465   1.084       .  S
C461        C462   1.435       .  A
C461        N466   1.437       .  S
C462        C463   1.402       .  A
C463        C464   1.407       .  A
C463        H467   1.082       .  S
C464        N468   1.431       .  S
N466        H469   1.046   1_556  S
N466        H470   1.032   1_556  S
N468        H471   1.043       .  S
N468        H472   1.040       .  S
C477        C478   1.416       .  A
C477        C482   1.408       .  A
C478        C479   1.394       .  A
C478        N483   1.440       .  S
C479        C480   1.406       .  A
C479        H484   1.082       .  S
C480        C481   1.413       .  A
C480        C485   1.493       .  S
C481        C482   1.411       .  A
C481        N486   1.440       .  S
C482        H487   1.084       .  S
N483        H503   1.044       .  S
N483        H504   1.044       .  S
C485        C488   1.402       .  A
C485        C492   1.413       .  A
N486        H501   1.045       .  S
N486        H502   1.042       .  S
C488        C489   1.399       .  A
C488        H493   1.084       .  S
C489        C490   1.415       .  A
C489        N494   1.433       .  S
C490        C491   1.406       .  A
C491        C492   1.409       .  A
C491        H495   1.084       .  S
C492        N496   1.430       .  S
N494        H497   1.046       .  S
N494        H498   1.045       .  S
N496        H499   1.045       .  S
N496        H500   1.045       .  S
C505        C506   1.416       .  A
C505        C510   1.409       .  A
C506        C507   1.419       .  A
C506        N511   1.432       .  S
C507        C508   1.411       .  A
C507        H512   1.081       .  S
C508        C509   1.419       .  A
C508        C513   1.523       .  S
C509        C510   1.417       .  A
C509        N514   1.431       .  S
C510        H515   1.083       .  S
N511        H531   1.045       .  S
N511        H532   1.044       .  S
C513        C516   1.408       .  A
C513        C520   1.419       .  A
N514        H529   1.043       .  S
N514        H530   1.045       .  S
C516        C517   1.420       .  A
C516        H521   1.084       .  S
C517        C518   1.416       .  A
C517        N522   1.431       .  S
C518        C519   1.404       .  A
C519        C520   1.418       .  A
C519        H523   1.084       .  S
C520        N524   1.427       .  S
N522        H525   1.045       .  S
N522        H526   1.043   1_556  S
N524        H527   1.045       .  S
N524        H528   1.043       .  S
C533        C534   1.417       .  A
C533        C538   1.403       .  A
C534        C535   1.399       .  A
C534        N539   1.439       .  S
C535        C536   1.407       .  A
C535        H540   1.082       .  S
C536        C537   1.413       .  A
C536        C541   1.495       .  S
C537        C538   1.406       .  A
C537        N542   1.438       .  S
C538        H543   1.081       .  S
N539        H559   1.043       .  S
N539        H560   1.045       .  S
C541        C544   1.401       .  A
C541        C548   1.417       .  A
N542        H557   1.045       .  S
N542        H558   1.041       .  S
C544        C545   1.398       .  A
C544        H549   1.084       .  S
C545        C546   1.417       .  A
C545        N550   1.434       .  S
C546        C547   1.404       .  A
C547        C548   1.409       .  A
C547        H551   1.083       .  S
C548        N552   1.434       .  S
N550        H553   1.046       .  S
N550        H554   1.046       .  S
N552        H555   1.042       .  S
N552        H556   1.043       .  S
C561        C562   1.412       .  A
C561        C566   1.401       .  A
C562        C563   1.403       .  A
C562        N567   1.433       .  S
C563        C564   1.415       .  A
C563        H568   1.080       .  S
C564        C565   1.417       .  A
C564        C569   1.517       .  S
C565        C566   1.406       .  A
C565        N570   1.432       .  S
C566        H571   1.079       .  S
N567        H587   1.044       .  S
N567        H588   1.041       .  S
C569        C572   1.413       .  A
C569        C576   1.423       .  A
N570        H585   1.046       .  S
N570        H586   1.045       .  S
C572        C573   1.412       .  A
C572        H577   1.081       .  S
C573        C574   1.410       .  A
C573        N578   1.436       .  S
C574        C575   1.397       .  A
C575        C576   1.406       .  A
C575        H579   1.084       .  S
C576        N580   1.430       .  S
N578        H581   1.045   1_554  S
N578        H582   1.045       .  S
N580        H583   1.046       .  S
N580        H584   1.045       .  S
C589        C590   1.417       .  A
C589        C594   1.397       .  A
C590        C591   1.404       .  A
C590        N595   1.439       .  S
C591        C592   1.403       .  A
C591        H596   1.081       .  S
C592        C593   1.424       .  A
C592        C597   1.509       .  S
C593        C594   1.409       .  A
C593        N598   1.430       .  S
C594        H599   1.084       .  S
N595        H615   1.045       .  S
N595        H616   1.046       .  S
C597        C600   1.404       .  A
C597        C604   1.421       .  A
N598        H613   1.046       .  S
N598        H614   1.044       .  S
C600        C601   1.404       .  A
C600        H605   1.082       .  S
C601        C602   1.412       .  A
C601        N606   1.426       .  S
C602        C603   1.405       .  A
C603        C604   1.408       .  A
C603        H607   1.084       .  S
C604        N608   1.431       .  S
N606        H609   1.044       .  S
N606        H610   1.044       .  S
N608        H611   1.046       .  S
N608        H612   1.045       .  S
C617        C618   1.416       .  A
C617        C622   1.399       .  A
C618        C619   1.384       .  A
C618        N623   1.439       .  S
C619        C620   1.399       .  A
C619        H624   1.077       .  S
C620        C621   1.418       .  A
C620        C625   1.484       .  S
C621        C622   1.405       .  A
C621        N626   1.437       .  S
C622        H627   1.083       .  S
N623        H643   1.043       .  S
N623        H644   1.045       .  S
C625        C628   1.404       .  A
C625        C632   1.416       .  A
N626        H641   1.046       .  S
N626        H642   1.045       .  S
C628        C629   1.392       .  A
C628        H633   1.079       .  S
C629        C630   1.403       .  A
C629        N634   1.433       .  S
C630        C631   1.397       .  A
C631        C632   1.400       .  A
C631        H635   1.084       .  S
C632        N636   1.431       .  S
N634        H637   1.045       .  S
N634        H638   1.046       .  S
N636        H639   1.045       .  S
N636        H640   1.042   1_554  S
C645        C646   1.418       .  A
C645        C650   1.405       .  A
C646        C647   1.416       .  A
C646        N651   1.433       .  S
C647        C648   1.406       .  A
C647        H652   1.083       .  S
C648        C649   1.405       .  A
C648        C653   1.474   1_554  S
C649        C650   1.382       .  A
C649        N654   1.435   1_554  S
C650        H655   1.070       .  S
N651        H671   1.045       .  S
N651        H672   1.045       .  S
C653        C656   1.403       .  A
C653        C660   1.406       .  A
N654        H669   1.041       .  S
N654        H670   1.045       .  S
C656        C657   1.389       .  A
C656        H661   1.086       .  S
C657        C658   1.416       .  A
C657        N662   1.439       .  S
C658        C659   1.407       .  A
C659        C660   1.408       .  A
C659        H663   1.083       .  S
C660        N664   1.430       .  S
N662        H665   1.044       .  S
N662        H666   1.043       .  S
N664        H667   1.045       .  S
N664        H668   1.046       .  S
C673        C674   1.405       .  A
C673        C678   1.415       .  A
C674        C675   1.408       .  A
C674        N679   1.436       .  S
C675        C676   1.413       .  A
C675        H680   1.082       .  S
C676        C677   1.398       .  A
C676        C681   1.478       .  S
C677        C678   1.395       .  A
C677        N682   1.438       .  S
C678        H683   1.083       .  S
N679        H699   1.046       .  S
N679        H700   1.045       .  S
C681        C684   1.405       .  A
C681        C688   1.393       .  A
N682        H697   1.046       .  S
N682        H698   1.046       .  S
C684        C685   1.405       .  A
C684        H689   1.083       .  S
C685        C686   1.419       .  A
C685        N690   1.436       .  S
C686        C687   1.405       .  A
C687        C688   1.389       .  A
C687        H691   1.069       .  S
C688        N692   1.433       .  S
N690        H693   1.043       .  S
N690        H694   1.044       .  S
N692        H695   1.042   1_455  S
N692        H696   1.046       .  S
C701        C702   1.419       .  A
C701        C706   1.406       .  A
C702        C703   1.408       .  A
C702        N707   1.438       .  S
C703        C704   1.403       .  A
C703        H708   1.083       .  S
C704        C705   1.404       .  A
C704        C709   1.476       .  S
C705        C706   1.397       .  A
C705        N710   1.440       .  S
C706        H711   1.081       .  S
N707        H727   1.044       .  S
N707        H728   1.045       .  S
C709        C712   1.396       .  A
C709        C716   1.408       .  A
N710        H725   1.046       .  S
N710        H726   1.043       .  S
C712        C713   1.403       .  A
C712        H717   1.084       .  S
C713        C714   1.414       .  A
C713        N718   1.431   1_554  S
C714        C715   1.400       .  A
C715        C716   1.406       .  A
C715        H719   1.084       .  S
C716        N720   1.434       .  S
N718        H721   1.044       .  S
N718        H722   1.045   1_556  S
N720        H723   1.044       .  S
N720        H724   1.046       .  S
C729        C730   1.408       .  A
C729        C734   1.401       .  A
C730        C731   1.406       .  A
C730        N735   1.438       .  S
C731        C732   1.403       .  A
C731        H736   1.083       .  S
C732        C733   1.405       .  A
C732        C737   1.472       .  S
C733        C734   1.399       .  A
C733        N738   1.438       .  S
C734        H739   1.078   1_455  S
N735        H755   1.045       .  S
N735        H756   1.045       .  S
C737        C740   1.396       .  A
C737        C744   1.410       .  A
N738        H753   1.046   1_455  S
N738        H754   1.045       .  S
C740        C741   1.393       .  A
C740        H745   1.085       .  S
C741        C742   1.422       .  A
C741        N746   1.439       .  S
C742        C743   1.403       .  A
C743        C744   1.400       .  A
C743        H747   1.083       .  S
C744        N748   1.432       .  S
N746        H749   1.045       .  S
N746        H750   1.040       .  S
N748        H751   1.045       .  S
N748        H752   1.045       .  S
C757        C758   1.407       .  A
C757        C762   1.410       .  A
C758        C759   1.404       .  A
C758        N763   1.432       .  S
C759        C760   1.408       .  A
C759        H764   1.081       .  S
C760        C761   1.412       .  A
C760        C765   1.496       .  S
C761        C762   1.405       .  A
C761        N766   1.438       .  S
C762        H767   1.083       .  S
N763        H783   1.045       .  S
N763        H784   1.046       .  S
C765        C768   1.408       .  A
C765        C772   1.416       .  A
N766        H781   1.046       .  S
N766        H782   1.046       .  S
C768        C769   1.404       .  A
C768        H773   1.083       .  S
C769        C770   1.414       .  A
C769        N774   1.438       .  S
C770        C771   1.404       .  A
C771        C772   1.398       .  A
C771        H775   1.079       .  S
C772        N776   1.434       .  S
N774        H777   1.044       .  S
N774        H778   1.044       .  S
N776        H779   1.042       .  S
N776        H780   1.046       .  S
C785        C786   1.408       .  A
C785        C790   1.395       .  A
C786        C787   1.415       .  A
C786        N791   1.430       .  S
C787        C788   1.407   1_455  A
C787        H792   1.083       .  S
C788        C789   1.405   1_655  A
C788        C793   1.476       .  S
C789        C790   1.387       .  A
C789        N794   1.435   1_455  S
C790        H795   1.079       .  S
N791        H811   1.045       .  S
N791        H812   1.045       .  S
C793        C796   1.400       .  A
C793        C800   1.402       .  A
N794        H809   1.040       .  S
N794        H810   1.047       .  S
C796        C797   1.405       .  A
C796        H801   1.083       .  S
C797        C798   1.421       .  A
C797        N802   1.431       .  S
C798        C799   1.414       .  A
C799        C800   1.407       .  A
C799        H803   1.076       .  S
C800        N804   1.432       .  S
N802        H805   1.042       .  S
N802        H806   1.044       .  S
N804        H807   1.045       .  S
N804        H808   1.045       .  S
C813        C814   1.409       .  A
C813        C818   1.398       .  A
C814        C815   1.394       .  A
C814        N819   1.440       .  S
C815        C816   1.405       .  A
C815        H820   1.075       .  S
C816        C817   1.422       .  A
C816        C821   1.489       .  S
C817        C818   1.396       .  A
C817        N822   1.438       .  S
C818        H823   1.083       .  S
N819        H839   1.040       .  S
N819        H840   1.043       .  S
C821        C824   1.406       .  A
C821        C828   1.415       .  A
N822        H837   1.045       .  S
N822        H838   1.044       .  S
C824        C825   1.391       .  A
C824        H829   1.077       .  S
C825        C826   1.397       .  A
C825        N830   1.433       .  S
C826        C827   1.401       .  A
C827        C828   1.401       .  A
C827        H831   1.082       .  S
C828        N832   1.432       .  S
N830        H833   1.046       .  S
N830        H834   1.046       .  S
N832        H835   1.038   1_455  S
N832        H836   1.044       .  S
C841        C842   1.415       .  A
C841        C846   1.408       .  A
C842        C843   1.404       .  A
C842        N847   1.422       .  S
C843        C844   1.400       .  A
C843        H848   1.083       .  S
C844        C845   1.424       .  A
C844        C849   1.512       .  S
C845        C846   1.407       .  A
C845        N850   1.431       .  S
C846        H851   1.084       .  S
N847        H867   1.045       .  S
N847        H868   1.044       .  S
C849        C852   1.404       .  A
C849        C856   1.425       .  A
N850        H865   1.044       .  S
N850        H866   1.039       .  S
C852        C853   1.408       .  A
C852        H857   1.078       .  S
C853        C854   1.416       .  A
C853        N858   1.438       .  S
C854        C855   1.396       .  A
C855        C856   1.407       .  A
C855        H859   1.084       .  S
C856        N860   1.430       .  S
N858        H861   1.046       .  S
N858        H862   1.046       .  S
N860        H863   1.041       .  S
N860        H864   1.046       .  S
C869        C870   1.415       .  A
C869        C874   1.405       .  A
C870        C871   1.412       .  A
C870        N875   1.430       .  S
C871        C872   1.405       .  A
C871        H876   1.083       .  S
C872        C873   1.402       .  A
C872        C877   1.491       .  S
C873        C874   1.398       .  A
C873        N878   1.433       .  S
C874        H879   1.073       .  S
N875        H895   1.045       .  S
N875        H896   1.045       .  S
C877        C880   1.405       .  A
C877        C884   1.407       .  A
N878        H893   1.044   1_455  S
N878        H894   1.045       .  S
C880        C881   1.402       .  A
C880        H885   1.082       .  S
C881        C882   1.415       .  A
C881        N886   1.438       .  S
C882        C883   1.412       .  A
C883        C884   1.411       .  A
C883        H887   1.083       .  S
C884        N888   1.437       .  S
N886        H889   1.046       .  S
N886        H890   1.045       .  S
N888        H891   1.046       .  S
N888        H892   1.046       .  S
C897        C898   1.412       .  A
C897        C902   1.406       .  A
C898        C899   1.411       .  A
C898        N903   1.437       .  S
C899        C900   1.404       .  A
C899        H904   1.083       .  S
C900        C901   1.404       .  A
C900        C905   1.471       .  S
C901        C902   1.392       .  A
C901        N906   1.439       .  S
C902        H907   1.084       .  S
N903        H923   1.044       .  S
N903        H924   1.046       .  S
C905        C908   1.395       .  A
C905        C912   1.407       .  A
N906        H921   1.045       .  S
N906        H922   1.046       .  S
C908        C909   1.402       .  A
C908        H913   1.084       .  S
C909        C910   1.415       .  A
C909        N914   1.433       .  S
C910        C911   1.401       .  A
C911        C912   1.404       .  A
C911        H915   1.084       .  S
C912        N916   1.436       .  S
N914        H917   1.046   1_556  S
N914        H918   1.045       .  S
N916        H919   1.045       .  S
N916        H920   1.040       .  S
C925        C926   1.413       .  A
C925        C930   1.409       .  A
C926        C927   1.378       .  A
C926        N931   1.441       .  S
C927        C928   1.403       .  A
C927        H932   1.079       .  S
C928        C929   1.409       .  A
C928        C933   1.483   1_554  S
C929        C930   1.409       .  A
C929        N934   1.430       .  S
C930        H935   1.083       .  S
N931        H951   1.041       .  S
N931        H952   1.044       .  S
C933        C936   1.408       .  A
C933        C940   1.399       .  A
N934        H949   1.046       .  S
N934        H950   1.045       .  S
C936        C937   1.421       .  A
C936        H941   1.083       .  S
C937        C938   1.418       .  A
C937        N942   1.435       .  S
C938        C939   1.402       .  A
C939        C940   1.386       .  A
C939        H943   1.076       .  S
C940        N944   1.434       .  S
N942        H945   1.045       .  S
N942        H946   1.045       .  S
N944        H947   1.046       .  S
N944        H948   1.045   1_556  S
C953        C954   1.416       .  A
C953        C958   1.407       .  A
C954        C955   1.407       .  A
C954        N959   1.433       .  S
C955        C956   1.400       .  A
C955        H960   1.083       .  S
C956        C957   1.401       .  A
C956        C961   1.464       .  S
C957        C958   1.397       .  A
C957        N962   1.431       .  S
C958        H963   1.063       .  S
N959        H979   1.045       .  S
N959        H980   1.046       .  S
C961        C964   1.397       .  A
C961        C968   1.405   1_655  A
N962        H977   1.044       .  S
N962        H978   1.045       .  S
C964        C965   1.386   1_655  A
C964        H969   1.085       .  S
C965        C966   1.410       .  A
C965        N970   1.432       .  S
C966        C967   1.406       .  A
C967        C968   1.409       .  A
C967        H971   1.083       .  S
C968        N972   1.436       .  S
N970        H973   1.046       .  S
N970        H974   1.046       .  S
N972        H975   1.046       .  S
N972        H976   1.045       .  S
C981        C982   1.417       .  A
C981        C986   1.406       .  A
C982        C983   1.406       .  A
C982        N987   1.437       .  S
C983        C984   1.411       .  A
C983        H988   1.079       .  S
C984        C985   1.419       .  A
C984        C989   1.519       .  S
C985        C986   1.411       .  A
C985        N990   1.437       .  S
C986        H991   1.081       .  S
N987       H1007   1.043       .  S
N987       H1008   1.045       .  S
C989        C992   1.411       .  A
C989        C996   1.415       .  A
N990       H1005   1.045       .  S
N990       H1006   1.046       .  S
C992        C993   1.408       .  A
C992        H997   1.076       .  S
C993        C994   1.409       .  A
C993        N998   1.432       .  S
C994        C995   1.407       .  A
C995        C996   1.411       .  A
C995        H999   1.081       .  S
C996       N1000   1.430       .  S
N998       H1001   1.046       .  S
N998       H1002   1.046       .  S
N1000      H1003   1.045       .  S
N1000      H1004   1.041   1_565  S
C1009      C1010   1.409       .  A
C1009      C1014   1.397       .  A
C1010      C1011   1.404       .  A
C1010      N1015   1.439       .  S
C1011      C1012   1.406       .  A
C1011      H1016   1.083       .  S
C1012      C1013   1.425       .  A
C1012      C1017   1.483       .  S
C1013      C1014   1.391       .  A
C1013      N1018   1.438       .  S
C1014      H1019   1.084       .  S
N1015      H1035   1.044       .  S
N1015      H1036   1.044       .  S
C1017      C1020   1.395       .  A
C1017      C1024   1.415       .  A
N1018      H1033   1.045       .  S
N1018      H1034   1.039       .  S
C1020      C1021   1.389       .  A
C1020      H1025   1.084       .  S
C1021      C1022   1.417       .  A
C1021      N1026   1.435       .  S
C1022      C1023   1.400       .  A
C1023      C1024   1.407       .  A
C1023      H1027   1.084       .  S
C1024      N1028   1.431       .  S
N1026      H1029   1.046       .  S
N1026      H1030   1.046       .  S
N1028      H1031   1.046       .  S
N1028      H1032   1.043       .  S
C1037      C1038   1.413       .  A
C1037      C1042   1.395       .  A
C1038      C1039   1.401       .  A
C1038      N1043   1.432       .  S
C1039      C1040   1.397       .  A
C1039      H1044   1.084       .  S
C1040      C1041   1.410       .  A
C1040      C1045   1.469       .  S
C1041      C1042   1.390       .  A
C1041      N1046   1.426       .  S
C1042      H1047   1.085       .  S
N1043      H1063   1.045       .  S
N1043      H1064   1.045   1_565  S
C1045      C1048   1.396       .  A
C1045      C1052   1.402       .  A
N1046      H1061   1.039       .  S
N1046      H1062   1.045       .  S
C1048      C1049   1.390       .  A
C1048      H1053   1.083       .  S
C1049      C1050   1.424       .  A
C1049      N1054   1.441       .  S
C1050      C1051   1.405       .  A
C1051      C1052   1.405       .  A
C1051      H1055   1.084       .  S
C1052      N1056   1.431       .  S
N1054      H1057   1.046       .  S
N1054      H1058   1.044       .  S
N1056      H1059   1.045       .  S
N1056      H1060   1.046       .  S
C1065      C1066   1.411       .  A
C1065      C1070   1.405       .  A
C1066      C1067   1.409       .  A
C1066      N1071   1.437       .  S
C1067      C1068   1.408       .  A
C1067      H1072   1.083       .  S
C1068      C1069   1.408       .  A
C1068      C1073   1.498       .  S
C1069      C1070   1.404       .  A
C1069      N1074   1.429       .  S
C1070      H1075   1.083       .  S
N1071      H1091   1.045       .  S
N1071      H1092   1.046       .  S
C1073      C1076   1.401       .  A
C1073      C1080   1.415       .  A
N1074      H1089   1.046       .  S
N1074      H1090   1.045       .  S
C1076      C1077   1.407       .  A
C1076      H1081   1.084       .  S
C1077      C1078   1.420       .  A
C1077      N1082   1.433       .  S
C1078      C1079   1.404       .  A
C1079      C1080   1.408       .  A
C1079      H1083   1.083       .  S
C1080      N1084   1.432       .  S
N1082      H1085   1.046       .  S
N1082      H1086   1.046       .  S
N1084      H1087   1.045       .  S
N1084      H1088   1.045       .  S
C1093      C1094   1.421       .  A
C1093      C1098   1.407       .  A
C1094      C1095   1.416       .  A
C1094      N1099   1.439       .  S
C1095      C1096   1.409       .  A
C1095      H1100   1.083       .  S
C1096      C1097   1.416       .  A
C1096      C1101   1.517       .  S
C1097      C1098   1.415       .  A
C1097      N1102   1.431       .  S
C1098      H1103   1.084       .  S
N1099      H1119   1.044       .  S
N1099      H1120   1.043       .  S
C1101      C1104   1.412       .  A
C1101      C1108   1.415       .  A
N1102      H1117   1.045       .  S
N1102      H1118   1.046       .  S
C1104      C1105   1.417       .  A
C1104      H1109   1.084       .  S
C1105      C1106   1.417       .  A
C1105      N1110   1.432       .  S
C1106      C1107   1.409       .  A
C1107      C1108   1.419       .  A
C1107      H1111   1.083       .  S
C1108      N1112   1.437       .  S
N1110      H1113   1.046       .  S
N1110      H1114   1.045       .  S
N1112      H1115   1.045       .  S
N1112      H1116   1.046       .  S
C1121      C1122   1.414       .  A
C1121      C1126   1.405       .  A
C1122      C1123   1.401       .  A
C1122      N1127   1.437       .  S
C1123      C1124   1.405       .  A
C1123      H1128   1.084       .  S
C1124      C1125   1.406       .  A
C1124      C1129   1.487       .  S
C1125      C1126   1.401       .  A
C1125      N1130   1.432       .  S
C1126      H1131   1.082       .  S
N1127      H1147   1.044       .  S
N1127      H1148   1.044       .  S
C1129      C1132   1.399       .  A
C1129      C1136   1.412       .  A
N1130      H1145   1.046       .  S
N1130      H1146   1.044       .  S
C1132      C1133   1.399       .  A
C1132      H1137   1.084       .  S
C1133      C1134   1.416       .  A
C1133      N1138   1.433       .  S
C1134      C1135   1.401       .  A
C1135      C1136   1.404       .  A
C1135      H1139   1.084       .  S
C1136      N1140   1.428       .  S
N1138      H1141   1.045   1_554  S
N1138      H1142   1.046       .  S
N1140      H1143   1.046       .  S
N1140      H1144   1.043       .  S
C1149      C1150   1.423       .  A
C1149      C1154   1.404       .  A
C1150      C1151   1.411       .  A
C1150      N1155   1.436       .  S
C1151      C1152   1.407       .  A
C1151      H1156   1.083       .  S
C1152      C1153   1.413       .  A
C1152      C1157   1.490       .  S
C1153      C1154   1.390       .  A
C1153      N1158   1.440       .  S
C1154      H1159   1.081       .  S
N1155      H1175   1.043       .  S
N1155      H1176   1.045       .  S
C1157      C1160   1.405       .  A
C1157      C1164   1.409       .  A
N1158      H1173   1.043       .  S
N1158      H1174   1.045       .  S
C1160      C1161   1.410       .  A
C1160      H1165   1.083       .  S
C1161      C1162   1.423       .  A
C1161      N1166   1.441       .  S
C1162      C1163   1.371       .  A
C1163      C1164   1.377       .  A
C1163      H1167   1.086       .  S
C1164      N1168   1.413       .  S
N1166      H1169   1.046       .  S
N1166      H1170   1.045       .  S
N1168      H1171   1.039       .  S
N1168      H1172   1.046       .  S
C1177      C1178   1.415       .  A
C1177      C1182   1.402       .  A
C1178      C1179   1.404       .  A
C1178      N1183   1.433       .  S
C1179      C1180   1.403       .  A
C1179      H1184   1.083       .  S
C1180      C1181   1.420       .  A
C1180      C1185   1.500       .  S
C1181      C1182   1.418       .  A
C1181      N1186   1.436       .  S
C1182      H1187   1.081       .  S
N1183      H1203   1.046       .  S
N1183      H1204   1.046       .  S
C1185      C1188   1.401       .  A
C1185      C1192   1.415       .  A
N1186      H1201   1.045       .  S
N1186      H1202   1.045       .  S
C1188      C1189   1.408       .  A
C1188      H1193   1.084       .  S
C1189      C1190   1.424       .  A
C1189      N1194   1.433       .  S
C1190      C1191   1.411       .  A
C1191      C1192   1.410       .  A
C1191      H1195   1.079       .  S
C1192      N1196   1.432       .  S
N1194      H1197   1.043       .  S
N1194      H1198   1.044       .  S
N1196      H1199   1.045       .  S
N1196      H1200   1.043       .  S
C1205      C1206   1.420       .  A
C1205      C1210   1.407       .  A
C1206      C1207   1.406       .  A
C1206      N1211   1.434       .  S
C1207      C1208   1.400       .  A
C1207      H1212   1.083       .  S
C1208      C1209   1.408       .  A
C1208      C1213   1.477   1_556  S
C1209      C1210   1.405       .  A
C1209      N1214   1.437       .  S
C1210      H1215   1.076       .  S
N1211      H1231   1.045       .  S
N1211      H1232   1.044       .  S
C1213      C1216   1.402       .  A
C1213      C1220   1.405       .  A
N1214      H1229   1.046       .  S
N1214      H1230   1.045       .  S
C1216      C1217   1.392       .  A
C1216      H1221   1.083   1_554  S
C1217      C1218   1.414       .  A
C1217      N1222   1.432       .  S
C1218      C1219   1.412       .  A
C1219      C1220   1.406       .  A
C1219      H1223   1.082       .  S
C1220      N1224   1.431       .  S
N1222      H1225   1.042       .  S
N1222      H1226   1.045       .  S
N1224      H1227   1.046       .  S
N1224      H1228   1.045       .  S
C1233      C1234   1.408       .  A
C1233      C1238   1.406       .  A
C1234      C1235   1.391       .  A
C1234      N1239   1.434       .  S
C1235      C1236   1.405       .  A
C1235      H1240   1.082       .  S
C1236      C1237   1.414       .  A
C1236      C1241   1.486       .  S
C1237      C1238   1.405       .  A
C1237      N1242   1.438       .  S
C1238      H1243   1.084       .  S
N1239      H1259   1.044       .  S
N1239      H1260   1.046       .  S
C1241      C1244   1.410       .  A
C1241      C1248   1.409       .  A
N1242      H1257   1.046       .  S
N1242      H1258   1.046       .  S
C1244      C1245   1.404       .  A
C1244      H1249   1.083       .  S
C1245      C1246   1.413       .  A
C1245      N1250   1.437       .  S
C1246      C1247   1.399       .  A
C1247      C1248   1.388       .  A
C1247      H1251   1.081       .  S
C1248      N1252   1.434       .  S
N1250      H1253   1.045       .  S
N1250      H1254   1.044       .  S
N1252      H1255   1.044       .  S
N1252      H1256   1.046       .  S
C1261      C1262   1.422       .  A
C1261      C1266   1.407       .  A
C1262      C1263   1.403       .  A
C1262      N1267   1.437       .  S
C1263      C1264   1.401       .  A
C1263      H1268   1.084       .  S
C1264      C1265   1.409       .  A
C1264      C1269   1.487       .  S
C1265      C1266   1.408       .  A
C1265      N1270   1.437       .  S
C1266      H1271   1.083       .  S
N1267      H1287   1.042       .  S
N1267      H1288   1.045       .  S
C1269      C1272   1.404       .  A
C1269      C1276   1.410       .  A
N1270      H1285   1.046       .  S
N1270      H1286   1.046       .  S
C1272      C1273   1.407       .  A
C1272      H1277   1.084       .  S
C1273      C1274   1.409       .  A
C1273      N1278   1.438       .  S
C1274      C1275   1.403       .  A
C1275      C1276   1.409       .  A
C1275      H1279   1.081       .  S
C1276      N1280   1.437       .  S
N1278      H1281   1.045       .  S
N1278      H1282   1.045       .  S
N1280      H1283   1.046       .  S
N1280      H1284   1.046       .  S
C1289      C1290   1.414       .  A
C1289      C1294   1.393       .  A
C1290      C1291   1.420       .  A
C1290      N1295   1.435   1_545  S
C1291      C1292   1.415       .  A
C1291      H1296   1.075       .  S
C1292      C1293   1.426       .  A
C1292      C1297   1.533       .  S
C1293      C1294   1.404       .  A
C1293      N1298   1.427       .  S
C1294      H1299   1.084       .  S
N1295      H1315   1.045   1_565  S
N1295      H1316   1.045       .  S
C1297      C1300   1.415       .  A
C1297      C1304   1.432       .  A
N1298      H1313   1.046       .  S
N1298      H1314   1.045       .  S
C1300      C1301   1.408       .  A
C1300      H1305   1.082       .  S
C1301      C1302   1.413       .  A
C1301      N1306   1.437       .  S
C1302      C1303   1.402       .  A
C1303      C1304   1.406       .  A
C1303      H1307   1.084       .  S
C1304      N1308   1.432       .  S
N1306      H1309   1.045       .  S
N1306      H1310   1.044       .  S
N1308      H1311   1.040       .  S
N1308      H1312   1.041       .  S
C1317      C1318   1.405       .  A
C1317      C1322   1.400       .  A
C1318      C1319   1.401       .  A
C1318      N1323   1.429       .  S
C1319      C1320   1.405       .  A
C1319      H1324   1.081       .  S
C1320      C1321   1.421       .  A
C1320      C1325   1.500       .  S
C1321      C1322   1.401       .  A
C1321      N1326   1.432       .  S
C1322      H1327   1.084       .  S
N1323      H1343   1.045       .  S
N1323      H1344   1.044       .  S
C1325      C1328   1.401       .  A
C1325      C1332   1.421       .  A
N1326      H1341   1.046       .  S
N1326      H1342   1.045       .  S
C1328      C1329   1.398       .  A
C1328      H1333   1.082       .  S
C1329      C1330   1.417       .  A
C1329      N1334   1.434       .  S
C1330      C1331   1.390       .  A
C1331      C1332   1.403       .  A
C1331      H1335   1.084       .  S
C1332      N1336   1.425       .  S
N1334      H1337   1.046       .  S
N1334      H1338   1.046       .  S
N1336      H1339   1.045       .  S
N1336      H1340   1.044       .  S
C1345      C1346   1.410       .  A
C1345      C1350   1.396       .  A
C1346      C1347   1.412       .  A
C1346      N1351   1.430       .  S
C1347      C1348   1.403       .  A
C1347      H1352   1.083       .  S
C1348      C1349   1.408       .  A
C1348      C1353   1.475   1_545  S
C1349      C1350   1.385       .  A
C1349      N1354   1.434       .  S
C1350      H1355   1.079       .  S
N1351      H1371   1.044       .  S
N1351      H1372   1.045       .  S
C1353      C1356   1.404       .  A
C1353      C1360   1.400       .  A
N1354      H1369   1.044       .  S
N1354      H1370   1.046       .  S
C1356      C1357   1.416       .  A
C1356      H1361   1.083       .  S
C1357      C1358   1.417       .  A
C1357      N1362   1.433       .  S
C1358      C1359   1.399       .  A
C1359      C1360   1.384       .  A
C1359      H1363   1.065       .  S
C1360      N1364   1.434   1_565  S
N1362      H1365   1.045       .  S
N1362      H1366   1.045       .  S
N1364      H1367   1.045       .  S
N1364      H1368   1.045       .  S
C1373      C1374   1.402       .  A
C1373      C1378   1.401       .  A
C1374      C1375   1.399       .  A
C1374      N1379   1.431   1_545  S
C1375      C1376   1.407       .  A
C1375      H1380   1.083       .  S
C1376      C1377   1.414       .  A
C1376      C1381   1.479       .  S
C1377      C1378   1.395       .  A
C1377      N1382   1.440       .  S
C1378      H1383   1.084       .  S
N1379      H1399   1.043       .  S
N1379      H1400   1.045   1_565  S
C1381      C1384   1.408       .  A
C1381      C1388   1.410       .  A
N1382      H1397   1.045       .  S
N1382      H1398   1.046       .  S
C1384      C1385   1.399       .  A
C1384      H1389   1.083       .  S
C1385      C1386   1.403       .  A
C1385      N1390   1.431       .  S
C1386      C1387   1.401       .  A
C1387      C1388   1.389       .  A
C1387      H1391   1.084       .  S
C1388      N1392   1.434       .  S
N1390      H1393   1.045       .  S
N1390      H1394   1.045       .  S
N1392      H1395   1.045       .  S
N1392      H1396   1.045       .  S
C1401      C1402   1.418       .  A
C1401      C1406   1.401       .  A
C1402      C1403   1.410       .  A
C1402      N1407   1.437       .  S
C1403      C1404   1.400       .  A
C1403      H1408   1.083       .  S
C1404      C1405   1.404       .  A
C1404      C1409   1.466       .  S
C1405      C1406   1.381       .  A
C1405      N1410   1.434       .  S
C1406      H1411   1.061       .  S
N1407      H1427   1.046       .  S
N1407      H1428   1.045       .  S
C1409      C1412   1.402       .  A
C1409      C1416   1.402       .  A
N1410      H1425   1.045       .  S
N1410      H1426   1.042       .  S
C1412      C1413   1.401       .  A
C1412      H1417   1.077       .  S
C1413      C1414   1.401       .  A
C1413      N1418   1.428       .  S
C1414      C1415   1.414       .  A
C1415      C1416   1.391       .  A
C1415      H1419   1.084       .  S
C1416      N1420   1.433       .  S
N1418      H1421   1.041       .  S
N1418      H1422   1.044       .  S
N1420      H1423   1.046       .  S
N1420      H1424   1.045       .  S
C1429      C1430   1.411       .  A
C1429      C1434   1.399       .  A
C1430      C1431   1.401       .  A
C1430      N1435   1.431       .  S
C1431      C1432   1.406       .  A
C1431      H1436   1.084       .  S
C1432      C1433   1.415       .  A
C1432      C1437   1.483       .  S
C1433      C1434   1.401       .  A
C1433      N1438   1.440       .  S
C1434      H1439   1.069       .  S
N1435      H1455   1.044       .  S
N1435      H1456   1.045       .  S
C1437      C1440   1.404       .  A
C1437      C1444   1.418       .  A
N1438      H1453   1.045       .  S
N1438      H1454   1.043       .  S
C1440      C1441   1.402       .  A
C1440      H1445   1.084       .  S
C1441      C1442   1.413       .  A
C1441      N1446   1.438       .  S
C1442      C1443   1.402       .  A
C1443      C1444   1.397       .  A
C1443      H1447   1.081       .  S
C1444      N1448   1.440       .  S
N1446      H1449   1.044       .  S
N1446      H1450   1.044       .  S
N1448      H1451   1.045       .  S
N1448      H1452   1.042       .  S
C1457      C1458   1.415       .  A
C1457      C1462   1.396       .  A
C1458      C1459   1.390       .  A
C1458      N1463   1.434       .  S
C1459      C1460   1.397       .  A
C1459      H1464   1.084       .  S
C1460      C1461   1.417       .  A
C1460      C1465   1.474       .  S
C1461      C1462   1.397       .  A
C1461      N1466   1.434       .  S
C1462      H1467   1.083       .  S
N1463      H1483   1.046       .  S
N1463      H1484   1.045   1_554  S
C1465      C1468   1.409       .  A
C1465      C1472   1.402       .  A
N1466      H1481   1.045       .  S
N1466      H1482   1.041       .  S
C1468      C1469   1.395       .  A
C1468      H1473   1.084       .  S
C1469      C1470   1.407       .  A
C1469      N1474   1.438       .  S
C1470      C1471   1.402       .  A
C1471      C1472   1.390       .  A
C1471      H1475   1.081       .  S
C1472      N1476   1.432       .  S
N1474      H1477   1.044       .  S
N1474      H1478   1.044       .  S
N1476      H1479   1.045       .  S
N1476      H1480   1.045   1_554  S
C1485      C1486   1.406       .  A
C1485      C1490   1.406       .  A
C1486      C1487   1.384       .  A
C1486      N1491   1.435       .  S
C1487      C1488   1.402       .  A
C1487      H1492   1.086       .  S
C1488      C1489   1.405       .  A
C1488      C1493   1.470   1_545  S
C1489      C1490   1.408       .  A
C1489      N1494   1.430       .  S
C1490      H1495   1.083       .  S
N1491      H1511   1.045       .  S
N1491      H1512   1.045       .  S
C1493      C1496   1.406       .  A
C1493      C1500   1.401       .  A
N1494      H1509   1.045       .  S
N1494      H1510   1.046       .  S
C1496      C1497   1.414       .  A
C1496      H1501   1.083       .  S
C1497      C1498   1.414       .  A
C1497      N1502   1.430       .  S
C1498      C1499   1.397       .  A
C1499      C1500   1.378       .  A
C1499      H1503   1.076       .  S
C1500      N1504   1.435       .  S
N1502      H1505   1.046       .  S
N1502      H1506   1.045       .  S
N1504      H1507   1.045       .  S
N1504      H1508   1.046       .  S
C1513      C1514   1.412       .  A
C1513      C1518   1.406       .  A
C1514      C1515   1.387       .  A
C1514      N1519   1.436       .  S
C1515      C1516   1.394       .  A
C1515      H1520   1.078   1_554  S
C1516      C1517   1.414       .  A
C1516      C1521   1.473   1_554  S
C1517      C1518   1.411       .  A
C1517      N1522   1.436       .  S
C1518      H1523   1.083       .  S
N1519      H1539   1.045       .  S
N1519      H1540   1.045       .  S
C1521      C1524   1.400       .  A
C1521      C1528   1.402       .  A
N1522      H1537   1.046       .  S
N1522      H1538   1.044       .  S
C1524      C1525   1.408       .  A
C1524      H1529   1.083       .  S
C1525      C1526   1.417       .  A
C1525      N1530   1.433       .  S
C1526      C1527   1.412       .  A
C1527      C1528   1.404       .  A
C1527      H1531   1.074       .  S
C1528      N1532   1.431       .  S
N1530      H1533   1.046       .  S
N1530      H1534   1.045       .  S
N1532      H1535   1.045       .  S
N1532      H1536   1.045       .  S
C1541      C1542   1.417       .  A
C1541      C1546   1.407       .  A
C1542      C1543   1.407       .  A
C1542      N1547   1.437       .  S
C1543      C1544   1.405       .  A
C1543      H1548   1.084       .  S
C1544      C1545   1.406       .  A
C1544      C1549   1.490       .  S
C1545      C1546   1.399       .  A
C1545      N1550   1.431       .  S
C1546      H1551   1.083       .  S
N1547      H1567   1.044       .  S
N1547      H1568   1.045       .  S
C1549      C1552   1.405       .  A
C1549      C1556   1.408       .  A
N1550      H1565   1.043       .  S
N1550      H1566   1.045       .  S
C1552      C1553   1.411       .  A
C1552      H1557   1.084       .  S
C1553      C1554   1.412       .  A
C1553      N1558   1.436       .  S
C1554      C1555   1.400       .  A
C1555      C1556   1.402       .  A
C1555      H1559   1.085       .  S
C1556      N1560   1.428       .  S
N1558      H1561   1.046   1_655  S
N1558      H1562   1.045       .  S
N1560      H1563   1.041       .  S
N1560      H1564   1.045       .  S
C1569      C1570   1.412       .  A
C1569      C1574   1.402       .  A
C1570      C1571   1.417       .  A
C1570      N1575   1.436       .  S
C1571      C1572   1.410       .  A
C1571      H1576   1.083       .  S
C1572      C1573   1.410       .  A
C1572      C1577   1.497       .  S
C1573      C1574   1.391       .  A
C1573      N1578   1.434       .  S
C1574      H1579   1.076       .  S
N1575      H1595   1.045       .  S
N1575      H1596   1.046       .  S
C1577      C1580   1.405       .  A
C1577      C1584   1.410       .  A
N1578      H1593   1.046       .  S
N1578      H1594   1.044       .  S
C1580      C1581   1.408       .  A
C1580      H1585   1.083       .  S
C1581      C1582   1.412       .  A
C1581      N1586   1.432       .  S
C1582      C1583   1.399       .  A
C1583      C1584   1.402       .  A
C1583      H1587   1.077       .  S
C1584      N1588   1.431       .  S
N1586      H1589   1.046       .  S
N1586      H1590   1.046       .  S
N1588      H1591   1.046       .  S
N1588      H1592   1.042   1_565  S
C1597      C1598   1.413       .  A
C1597      C1602   1.397       .  A
C1598      C1599   1.413       .  A
C1598      N1603   1.431       .  S
C1599      C1600   1.413       .  A
C1599      H1604   1.081       .  S
C1600      C1601   1.416       .  A
C1600      C1605   1.511       .  S
C1601      C1602   1.394       .  A
C1601      N1606   1.430       .  S
C1602      H1607   1.071       .  S
N1603      H1623   1.045       .  S
N1603      H1624   1.045       .  S
C1605      C1608   1.410       .  A
C1605      C1612   1.419       .  A
N1606      H1621   1.046       .  S
N1606      H1622   1.041       .  S
C1608      C1609   1.403       .  A
C1608      H1613   1.082       .  S
C1609      C1610   1.410       .  A
C1609      N1614   1.433       .  S
C1610      C1611   1.403       .  A
C1611      C1612   1.405       .  A
C1611      H1615   1.084       .  S
C1612      N1616   1.432       .  S
N1614      H1617   1.046       .  S
N1614      H1618   1.045   1_565  S
N1616      H1619   1.045       .  S
N1616      H1620   1.046       .  S
C1625      C1626   1.425       .  A
C1625      C1630   1.406       .  A
C1626      C1627   1.408       .  A
C1626      N1631   1.433       .  S
C1627      C1628   1.402       .  A
C1627      H1632   1.084       .  S
C1628      C1629   1.416       .  A
C1628      C1633   1.495       .  S
C1629      C1630   1.401       .  A
C1629      N1634   1.430       .  S
C1630      H1635   1.078       .  S
N1631      H1651   1.043       .  S
N1631      H1652   1.045       .  S
C1633      C1636   1.401       .  A
C1633      C1640   1.416       .  A
N1634      H1649   1.043       .  S
N1634      H1650   1.044       .  S
C1636      C1637   1.400       .  A
C1636      H1641   1.082       .  S
C1637      C1638   1.411       .  A
C1637      N1642   1.433       .  S
C1638      C1639   1.401       .  A
C1639      C1640   1.410       .  A
C1639      H1643   1.081       .  S
C1640      N1644   1.433       .  S
N1642      H1645   1.046       .  S
N1642      H1646   1.046       .  S
N1644      H1647   1.046       .  S
N1644      H1648   1.045       .  S
C1653      C1654   1.414       .  A
C1653      C1658   1.402       .  A
C1654      C1655   1.404       .  A
C1654      N1659   1.437       .  S
C1655      C1656   1.404       .  A
C1655      H1660   1.084       .  S
C1656      C1657   1.407       .  A
C1656      C1661   1.458       .  S
C1657      C1658   1.381       .  A
C1657      N1662   1.441       .  S
C1658      H1663   1.081       .  S
N1659      H1679   1.043       .  S
N1659      H1680   1.046       .  S
C1661      C1664   1.401       .  A
C1661      C1668   1.404       .  A
N1662      H1677   1.045       .  S
N1662      H1678   1.042       .  S
C1664      C1665   1.401       .  A
C1664      H1669   1.083       .  S
C1665      C1666   1.405       .  A
C1665      N1670   1.438       .  S
C1666      C1667   1.402       .  A
C1667      C1668   1.396       .  A
C1667      H1671   1.083   1_655  S
C1668      N1672   1.439       .  S
N1670      H1673   1.045       .  S
N1670      H1674   1.045       .  S
N1672      H1675   1.046   1_655  S
N1672      H1676   1.045   1_655  S
C1681      C1682   1.408       .  A
C1681      C1686   1.400       .  A
C1682      C1683   1.391       .  A
C1682      N1687   1.430       .  S
C1683      C1684   1.399       .  A
C1683      H1688   1.083       .  S
C1684      C1685   1.419       .  A
C1684      C1689   1.470       .  S
C1685      C1686   1.396       .  A
C1685      N1690   1.440       .  S
C1686      H1691   1.084       .  S
N1687      H1707   1.045       .  S
N1687      H1708   1.044       .  S
C1689      C1692   1.404       .  A
C1689      C1696   1.408       .  A
N1690      H1705   1.046       .  S
N1690      H1706   1.041       .  S
C1692      C1693   1.401       .  A
C1692      H1697   1.079       .  S
C1693      C1694   1.409       .  A
C1693      N1698   1.437       .  S
C1694      C1695   1.411       .  A
C1695      C1696   1.390       .  A
C1695      H1699   1.084       .  S
C1696      N1700   1.440       .  S
N1698      H1701   1.046       .  S
N1698      H1702   1.045       .  S
N1700      H1703   1.046       .  S
N1700      H1704   1.043       .  S
C1709      C1710   1.410       .  A
C1709      C1714   1.403       .  A
C1710      C1711   1.401       .  A
C1710      N1715   1.438       .  S
C1711      C1712   1.400       .  A
C1711      H1716   1.080       .  S
C1712      C1713   1.415       .  A
C1712      C1717   1.478       .  S
C1713      C1714   1.395       .  A
C1713      N1718   1.433       .  S
C1714      H1719   1.084       .  S
N1715      H1735   1.045       .  S
N1715      H1736   1.043       .  S
C1717      C1720   1.405       .  A
C1717      C1724   1.398       .  A
N1718      H1733   1.045       .  S
N1718      H1734   1.041       .  S
C1720      C1721   1.402       .  A
C1720      H1725   1.078       .  S
C1721      C1722   1.405       .  A
C1721      N1726   1.431       .  S
C1722      C1723   1.416       .  A
C1723      C1724   1.396       .  A
C1723      H1727   1.083       .  S
C1724      N1728   1.433       .  S
N1726      H1729   1.045       .  S
N1726      H1730   1.045       .  S
N1728      H1731   1.045       .  S
N1728      H1732   1.046       .  S
C1737      C1738   1.406       .  A
C1737      C1742   1.403       .  A
C1738      C1739   1.389       .  A
C1738      N1743   1.430       .  S
C1739      C1740   1.400       .  A
C1739      H1744   1.084       .  S
C1740      C1741   1.405       .  A
C1740      C1745   1.457       .  S
C1741      C1742   1.399       .  A
C1741      N1746   1.438       .  S
C1742      H1747   1.082       .  S
N1743      H1763   1.045       .  S
N1743      H1764   1.043       .  S
C1745      C1748   1.399       .  A
C1745      C1752   1.399       .  A
N1746      H1761   1.046       .  S
N1746      H1762   1.046       .  S
C1748      C1749   1.402       .  A
C1748      H1753   1.084       .  S
C1749      C1750   1.418       .  A
C1749      N1754   1.438       .  S
C1750      C1751   1.401       .  A
C1751      C1752   1.387       .  A
C1751      H1755   1.076       .  S
C1752      N1756   1.440       .  S
N1754      H1757   1.046       .  S
N1754      H1758   1.043       .  S
N1756      H1759   1.046       .  S
N1756      H1760   1.046       .  S
C1765      C1766   1.420       .  A
C1765      C1770   1.411       .  A
C1766      C1767   1.384       .  A
C1766      N1771   1.438       .  S
C1767      C1768   1.399       .  A
C1767      H1772   1.086       .  S
C1768      C1769   1.406       .  A
C1768      C1773   1.479   1_545  S
C1769      C1770   1.408       .  A
C1769      N1774   1.431       .  S
C1770      H1775   1.084       .  S
N1771      H1791   1.041       .  S
N1771      H1792   1.045       .  S
C1773      C1776   1.404       .  A
C1773      C1780   1.406       .  A
N1774      H1789   1.046       .  S
N1774      H1790   1.045       .  S
C1776      C1777   1.386       .  A
C1776      H1781   1.082       .  S
C1777      C1778   1.408       .  A
C1777      N1782   1.439       .  S
C1778      C1779   1.404       .  A
C1779      C1780   1.407       .  A
C1779      H1783   1.081       .  S
C1780      N1784   1.430       .  S
N1782      H1785   1.045       .  S
N1782      H1786   1.043       .  S
N1784      H1787   1.045       .  S
N1784      H1788   1.045       .  S
C1793      C1794   1.417       .  A
C1793      C1798   1.413       .  A
C1794      C1795   1.408       .  A
C1794      N1799   1.435       .  S
C1795      C1796   1.404       .  A
C1795      H1800   1.077       .  S
C1796      C1797   1.412       .  A
C1796      C1801   1.491       .  S
C1797      C1798   1.404       .  A
C1797      N1802   1.439       .  S
C1798      H1803   1.075       .  S
N1799      H1819   1.045       .  S
N1799      H1820   1.041       .  S
C1801      C1804   1.409       .  A
C1801      C1808   1.404       .  A
N1802      H1817   1.045       .  S
N1802      H1818   1.044       .  S
C1804      C1805   1.412       .  A
C1804      H1809   1.084       .  S
C1805      C1806   1.408       .  A
C1805      N1810   1.436       .  S
C1806      C1807   1.409       .  A
C1807      C1808   1.402       .  A
C1807      H1811   1.084       .  S
C1808      N1812   1.432       .  S
N1810      H1813   1.046       .  S
N1810      H1814   1.046       .  S
N1812      H1815   1.046       .  S
N1812      H1816   1.046       .  S
C1821      C1822   1.417       .  A
C1821      C1826   1.403       .  A
C1822      C1823   1.406       .  A
C1822      N1827   1.439       .  S
C1823      C1824   1.405       .  A
C1823      H1828   1.077       .  S
C1824      C1825   1.423       .  A
C1824      C1829   1.518       .  S
C1825      C1826   1.412       .  A
C1825      N1830   1.432       .  S
C1826      H1831   1.084       .  S
N1827      H1847   1.046       .  S
N1827      H1848   1.046       .  S
C1829      C1832   1.413       .  A
C1829      C1836   1.425       .  A
N1830      H1845   1.046       .  S
N1830      H1846   1.045       .  S
C1832      C1833   1.413       .  A
C1832      H1837   1.082       .  S
C1833      C1834   1.420       .  A
C1833      N1838   1.434       .  S
C1834      C1835   1.399       .  A
C1835      C1836   1.394       .  A
C1835      H1839   1.077       .  S
C1836      N1840   1.432       .  S
N1838      H1841   1.045       .  S
N1838      H1842   1.041       .  S
N1840      H1843   1.043       .  S
N1840      H1844   1.041       .  S
C1849      C1850   1.412       .  A
C1849      C1854   1.409       .  A
C1850      C1851   1.410       .  A
C1850      N1855   1.435       .  S
C1851      C1852   1.409       .  A
C1851      H1856   1.082       .  S
C1852      C1853   1.410       .  A
C1852      C1857   1.499       .  S
C1853      C1854   1.405       .  A
C1853      N1858   1.437       .  S
C1854      H1859   1.083       .  S
N1855      H1875   1.042       .  S
N1855      H1876   1.045       .  S
C1857      C1860   1.411       .  A
C1857      C1864   1.409       .  A
N1858      H1873   1.045       .  S
N1858      H1874   1.046       .  S
C1860      C1861   1.409       .  A
C1860      H1865   1.083       .  S
C1861      C1862   1.413       .  A
C1861      N1866   1.437       .  S
C1862      C1863   1.407       .  A
C1863      C1864   1.403       .  A
C1863      H1867   1.078       .  S
C1864      N1868   1.439       .  S
N1866      H1869   1.045       .  S
N1866      H1870   1.043       .  S
N1868      H1871   1.046       .  S
N1868      H1872   1.042       .  S
C1877      C1878   1.402       .  A
C1877      C1882   1.402       .  A
C1878      C1879   1.404       .  A
C1878      N1883   1.431       .  S
C1879      C1880   1.411       .  A
C1879      H1884   1.082       .  S
C1880      C1881   1.427       .  A
C1880      C1885   1.516       .  S
C1881      C1882   1.411       .  A
C1881      N1886   1.438       .  S
C1882      H1887   1.084       .  S
N1883      H1903   1.044       .  S
N1883      H1904   1.045       .  S
C1885      C1888   1.408       .  A
C1885      C1892   1.423       .  A
N1886      H1901   1.045       .  S
N1886      H1902   1.044       .  S
C1888      C1889   1.405       .  A
C1888      H1893   1.073       .  S
C1889      C1890   1.402       .  A
C1889      N1894   1.433   1_545  S
C1890      C1891   1.400       .  A
C1891      C1892   1.408       .  A
C1891      H1895   1.084       .  S
C1892      N1896   1.433       .  S
N1894      H1897   1.044   1_565  S
N1894      H1898   1.044       .  S
N1896      H1899   1.045       .  S
N1896      H1900   1.045       .  S
C1905      C1906   1.428       .  A
C1905      C1910   1.416       .  A
C1906      C1907   1.400       .  A
C1906      N1911   1.435       .  S
C1907      C1908   1.402   1_655  A
C1907      H1912   1.086   1_655  S
C1908      C1909   1.406   1_455  A
C1908      C1913   1.488       .  S
C1909      C1910   1.413       .  A
C1909      N1914   1.430       .  S
C1910      H1915   1.082       .  S
N1911      H1931   1.041       .  S
N1911      H1932   1.045       .  S
C1913      C1916   1.399       .  A
C1913      C1920   1.407       .  A
N1914      H1929   1.045       .  S
N1914      H1930   1.046       .  S
C1916      C1917   1.383       .  A
C1916      H1921   1.068       .  S
C1917      C1918   1.408       .  A
C1917      N1922   1.440       .  S
C1918      C1919   1.412       .  A
C1919      C1920   1.416       .  A
C1919      H1923   1.082       .  S
C1920      N1924   1.435       .  S
N1922      H1925   1.041       .  S
N1922      H1926   1.044       .  S
N1924      H1927   1.046       .  S
N1924      H1928   1.045       .  S
C1933      C1934   1.421       .  A
C1933      C1938   1.415       .  A
C1934      C1935   1.410       .  A
C1934      N1939   1.435       .  S
C1935      C1936   1.407       .  A
C1935      H1940   1.079       .  S
C1936      C1937   1.397       .  A
C1936      C1941   1.490       .  S
C1937      C1938   1.397       .  A
C1937      N1942   1.431       .  S
C1938      H1943   1.067       .  S
N1939      H1959   1.045       .  S
N1939      H1960   1.042       .  S
C1941      C1944   1.408       .  A
C1941      C1948   1.403       .  A
N1942      H1957   1.043       .  S
N1942      H1958   1.045       .  S
C1944      C1945   1.412       .  A
C1944      H1949   1.084       .  S
C1945      C1946   1.412       .  A
C1945      N1950   1.436       .  S
C1946      C1947   1.414       .  A
C1947      C1948   1.407       .  A
C1947      H1951   1.083       .  S
C1948      N1952   1.438       .  S
N1950      H1953   1.046       .  S
N1950      H1954   1.045       .  S
N1952      H1955   1.045       .  S
N1952      H1956   1.046       .  S
C1961      C1962   1.415       .  A
C1961      C1966   1.407       .  A
C1962      C1963   1.414       .  A
C1962      N1967   1.437       .  S
C1963      C1964   1.404       .  A
C1963      H1968   1.083       .  S
C1964      C1965   1.408       .  A
C1964      C1969   1.489       .  S
C1965      C1966   1.406       .  A
C1965      N1970   1.437       .  S
C1966      H1971   1.083       .  S
N1967      H1987   1.043       .  S
N1967      H1988   1.045       .  S
C1969      C1972   1.399       .  A
C1969      C1976   1.409       .  A
N1970      H1985   1.046       .  S
N1970      H1986   1.044       .  S
C1972      C1973   1.409       .  A
C1972      H1977   1.084       .  S
C1973      C1974   1.419       .  A
C1973      N1978   1.436       .  S
C1974      C1975   1.403       .  A
C1975      C1976   1.408       .  A
C1975      H1979   1.084       .  S
C1976      N1980   1.428       .  S
N1978      H1981   1.045       .  S
N1978      H1982   1.046       .  S
N1980      H1983   1.045       .  S
N1980      H1984   1.044       .  S
C1989      C1990   1.418       .  A
C1989      C1994   1.404       .  A
C1990      C1991   1.402       .  A
C1990      N1995   1.438       .  S
C1991      C1992   1.401       .  A
C1991      H1996   1.084       .  S
C1992      C1993   1.409       .  A
C1992      C1997   1.486       .  S
C1993      C1994   1.402       .  A
C1993      N1998   1.430       .  S
C1994      H1999   1.084       .  S
N1995      H2015   1.046       .  S
N1995      H2016   1.046       .  S
C1997      C2000   1.407       .  A
C1997      C2004   1.410       .  A
N1998      H2013   1.042       .  S
N1998      H2014   1.045       .  S
C2000      C2001   1.398       .  A
C2000      H2005   1.084       .  S
C2001      C2002   1.410       .  A
C2001      N2006   1.438       .  S
C2002      C2003   1.407       .  A
C2003      C2004   1.403       .  A
C2003      H2007   1.083       .  S
C2004      N2008   1.437       .  S
N2006      H2009   1.046       .  S
N2006      H2010   1.043       .  S
N2008      H2011   1.044       .  S
N2008      H2012   1.046       .  S
C2017      C2018   1.421       .  A
C2017      C2022   1.409       .  A
C2018      C2019   1.412       .  A
C2018      N2023   1.437       .  S
C2019      C2020   1.404       .  A
C2019      H2024   1.084       .  S
C2020      C2021   1.411       .  A
C2020      C2025   1.497       .  S
C2021      C2022   1.400       .  A
C2021      N2026   1.430       .  S
C2022      H2027   1.078       .  S
N2023      H2043   1.044       .  S
N2023      H2044   1.045       .  S
C2025      C2028   1.408       .  A
C2025      C2032   1.419       .  A
N2026      H2041   1.044       .  S
N2026      H2042   1.043       .  S
C2028      C2029   1.412       .  A
C2028      H2033   1.083       .  S
C2029      C2030   1.404       .  A
C2029      N2034   1.437       .  S
C2030      C2031   1.409       .  A
C2031      C2032   1.407       .  A
C2031      H2035   1.085       .  S
C2032      N2036   1.439       .  S
N2034      H2037   1.045       .  S
N2034      H2038   1.046       .  S
N2036      H2039   1.046       .  S
N2036      H2040   1.044       .  S
C2045      C2046   1.403       .  A
C2045      C2050   1.395       .  A
C2046      C2047   1.405       .  A
C2046      N2051   1.431       .  S
C2047      C2048   1.409       .  A
C2047      H2052   1.083       .  S
C2048      C2049   1.412       .  A
C2048      C2053   1.477   1_565  S
C2049      C2050   1.381       .  A
C2049      N2054   1.434       .  S
C2050      H2055   1.086       .  S
N2051      H2071   1.045       .  S
N2051      H2072   1.045       .  S
C2053      C2056   1.406       .  A
C2053      C2060   1.411       .  A
N2054      H2069   1.046       .  S
N2054      H2070   1.046       .  S
C2056      C2057   1.402       .  A
C2056      H2061   1.083       .  S
C2057      C2058   1.409       .  A
C2057      N2062   1.430       .  S
C2058      C2059   1.403       .  A
C2059      C2060   1.385       .  A
C2059      H2063   1.075       .  S
C2060      N2064   1.440       .  S
N2062      H2065   1.045       .  S
N2062      H2066   1.045       .  S
N2064      H2067   1.044       .  S
N2064      H2068   1.045   1_545  S
C2073      C2074   1.409       .  A
C2073      C2078   1.402       .  A
C2074      C2075   1.406       .  A
C2074      N2079   1.436       .  S
C2075      C2076   1.403       .  A
C2075      H2080   1.083       .  S
C2076      C2077   1.408       .  A
C2076      C2081   1.469   1_455  S
C2077      C2078   1.389       .  A
C2077      N2082   1.434       .  S
C2078      H2083   1.084       .  S
N2079      H2099   1.046       .  S
N2079      H2100   1.045       .  S
C2081      C2084   1.404       .  A
C2081      C2088   1.399       .  A
N2082      H2097   1.045       .  S
N2082      H2098   1.046       .  S
C2084      C2085   1.407       .  A
C2084      H2089   1.083       .  S
C2085      C2086   1.424       .  A
C2085      N2090   1.437       .  S
C2086      C2087   1.400       .  A
C2087      C2088   1.382       .  A
C2087      H2091   1.070       .  S
C2088      N2092   1.433       .  S
N2090      H2093   1.045       .  S
N2090      H2094   1.044       .  S
N2092      H2095   1.045       .  S
N2092      H2096   1.046       .  S
