geometry optimzed in LAMMPS
_audit_creation_date              2020-11-30 
_audit_creation_method            'lammps2cif' 
_symmetry_space_group_name_H-M    'P1' 
_symmetry_Int_Tables_number       1 
_symmetry_cell_setting            triclinic 
loop_ 
_symmetry_equiv_pos_as_xyz 
  x,y,z 
_cell_length_a                    26.51140297 
_cell_length_b                    23.317674774238622 
_cell_length_c                    26.360904717322178 
_cell_angle_alpha                 93.91625187678689 
_cell_angle_beta                  70.29558328155883 
_cell_angle_gamma                 101.73881054376274 
loop_ 
_atom_site_label 
_atom_site_type_symbol 
_atom_site_fract_x 
_atom_site_fract_y 
_atom_site_fract_z 
_atom_site_charge 
O1          O  0.95780353  0.03890137  0.14418946    -0.81700
O2          O  0.98335459  0.02548699  0.90033348    -0.66400
O3          O  0.95061549  0.98479511  0.04677671    -1.13000
C4          C  0.14091242  0.98575706  0.99082773     1.05200
O5          O  0.03320401  0.95747429  0.86969314    -0.79600
O6          O  0.04967570  0.89103769  0.93927213    -0.67200
Ni7        Ni  0.90754268  0.02763707  0.10379069     1.34900
C8          C  0.02416628  0.87192304  0.98673656     0.83900
O9          O  0.89062368  0.00221379  0.98202657    -0.80200
O10         O  0.85174022  0.01868971  0.07039333    -0.90400
C11         C  0.00760508  0.99475525  0.86200830     0.83500
O12         O  0.93931354  0.10431872  0.07417817    -0.68600
O13         O  0.13772001  0.97452716  0.94391296    -0.87900
C14         C  0.96472200  0.12278240  0.02634680     0.84300
C15         C  0.84963999  0.00886038  0.02281059     1.05900
H16         H  0.05882525  0.04961505  0.96364741     0.37700
O17         O  0.03969546  0.00947835  0.96777317    -1.10600
O18         O  0.01497947  0.90503626  0.02796703    -0.67200
Ni19       Ni  0.02500504  0.98823507  0.04050857     1.26300
O20         O  0.97541370  0.08903804  0.98593534    -0.67500
O21         O  0.10023020  0.99259128  0.03202907    -0.79700
C22         C  0.98517492  0.00347284  0.15202121     0.83700
O23         O  0.00731835  0.97023390  0.11458676    -0.66900
Ni24       Ni  0.08274309  0.96728949  0.91034041     1.27400
Ni25       Ni  0.96547179  0.00616136  0.97393940     1.26100
H26         H  0.93157255  0.94450503  0.05121382     0.38200
O27         O  0.97289842  0.04792586  0.63915489    -0.81700
O28         O  0.00001814  0.03265750  0.39403531    -0.66400
O29         O  0.96913063  0.99456582  0.54073030    -1.13000
C30         C  0.16059887  0.00453819  0.48690789     1.05200
O31         O  0.05541727  0.96997558  0.36283830    -0.79600
O32         O  0.07422912  0.90630023  0.43306420    -0.67200
Ni33       Ni  0.92450049  0.03671232  0.59706749     1.34900
C34         C  0.04908338  0.88595619  0.48014755     0.83900
O35         O  0.90790676  0.00401894  0.47548610    -0.80200
O36         O  0.87021045  0.02765949  0.56207382    -0.90400
C37         C  0.02507086  0.00223899  0.35582424     0.83500
O38         O  0.95652922  0.11343568  0.56796518    -0.68600
O39         O  0.15888125  0.99451336  0.43929769    -0.87900
C40         C  0.97744675  0.13189587  0.51981982     0.84300
C41         C  0.86724087  0.01344534  0.51543582     1.05900
H42         H  0.07478131  0.06488389  0.45838950     0.37700
O43         O  0.05808757  0.02381997  0.46220303    -1.10600
O44         O  0.03746583  0.91888149  0.52136822    -0.67200
Ni45       Ni  0.04372406  0.00187693  0.53497124     1.26300
O46         O  0.98721902  0.09765916  0.47948232    -0.67500
O47         O  0.11902946  0.00992109  0.52753424    -0.79700
C48         C  0.99948241  0.01176700  0.64712687     0.83700
O49         O  0.02572299  0.98231762  0.60872081    -0.66900
Ni50       Ni  0.10406788  0.98363886  0.40488827     1.27400
Ni51       Ni  0.98323967  0.01465020  0.46779874     1.26100
H52         H  0.95144018  0.95382805  0.54556450     0.38200
O53         O  0.94537396  0.53728930  0.13877309    -0.81700
O54         O  0.98063587  0.52478874  0.89132414    -0.66400
O55         O  0.94456516  0.48421980  0.03861040    -1.13000
C56         C  0.13359417  0.48465839  0.98788813     1.05200
O57         O  0.02968513  0.45572386  0.86244020    -0.79600
O58         O  0.04032799  0.38868579  0.93683634    -0.67200
Ni59       Ni  0.89831316  0.52471196  0.09520252     1.34900
C60         C  0.01850971  0.37199180  0.98557948     0.83900
O61         O  0.88618858  0.49995305  0.97126816    -0.80200
O62         O  0.84518457  0.51496504  0.05918838    -0.90400
C63         C  0.00525398  0.49361943  0.85349645     0.83500
O64         O  0.92919481  0.60155847  0.06686317    -0.68600
O65         O  0.12996989  0.46943947  0.94168586    -0.87900
C66         C  0.95610256  0.62134670  0.01985140     0.84300
C67         C  0.84418164  0.50523975  0.01133397     1.05900
H68         H  0.05395233  0.54979244  0.95511418     0.37700
O69         O  0.03464181  0.50963936  0.96075921    -1.10600
O70         O  0.01119446  0.40724901  0.02502722    -0.67200
Ni71       Ni  0.01880768  0.49056155  0.03436300     1.26300
O72         O  0.96899843  0.58869467  0.97859939    -0.67500
O73         O  0.09389529  0.49742675  0.02733590    -0.79700
C74         C  0.97501598  0.50454461  0.14641248     0.83700
O75         O  0.00039124  0.47384124  0.10866500    -0.66900
Ni76       Ni  0.07679594  0.46383705  0.90584617     1.27400
Ni77       Ni  0.96080123  0.50557736  0.96537274     1.26100
H78         H  0.92673126  0.44359257  0.04208883     0.38200
O79         O  0.96487756  0.54503627  0.63362765    -0.81700
O80         O  0.98970815  0.53611968  0.38845901    -0.66400
O81         O  0.95893311  0.49459476  0.53453194    -1.13000
C82         C  0.14991489  0.49856472  0.47549062     1.05200
O83         O  0.03684385  0.46559627  0.35915773    -0.79600
O84         O  0.05770296  0.40040773  0.42706540    -0.67200
Ni85       Ni  0.91619856  0.53728745  0.59211389     1.34900
C86         C  0.03599617  0.38194692  0.47511819     0.83900
O87         O  0.89760592  0.51221319  0.47085807    -0.80200
O88         O  0.86122699  0.53214971  0.55856357    -0.90400
C89         C  0.01125905  0.50266423  0.35103972     0.83500
O90         O  0.95079844  0.61371323  0.56374703    -0.68600
O91         O  0.14567529  0.48563731  0.42907645    -0.87900
C92         C  0.97446178  0.63364539  0.51633294     0.84300
C93         C  0.85745630  0.52019014  0.51194885     1.05900
H94         H  0.06629908  0.56078795  0.44969792     0.37700
O95         O  0.04718428  0.52053397  0.45463861    -1.10600
O96         O  0.02596019  0.41619578  0.51535392    -0.67200
Ni97       Ni  0.03392592  0.49943367  0.52699352     1.26300
O98         O  0.98239279  0.60044998  0.47507035    -0.67500
O99         O  0.10958043  0.50597622  0.51687606    -0.79700
C100        C  0.99287385  0.50931988  0.63959736     0.83700
O101        O  0.01796540  0.48017543  0.60035431    -0.66900
Ni102      Ni  0.08877726  0.47692651  0.39732462     1.27400
Ni103      Ni  0.97272943  0.51702207  0.46202265     1.26100
H104        H  0.94044350  0.45409869  0.53880371     0.38200
O105        O  0.45607718  0.03331471  0.14249959    -0.81700
O106        O  0.48063033  0.01373678  0.89705906    -0.66400
O107        O  0.45201968  0.97780946  0.04404770    -1.13000
C108        C  0.64181037  0.98443976  0.99062425     1.05200
O109        O  0.54003543  0.95538971  0.86340890    -0.79600
O110        O  0.54849846  0.88738257  0.93779509    -0.67200
Ni111      Ni  0.40768530  0.02086347  0.10031148     1.34900
C112        C  0.52823402  0.86955820  0.98626648     0.83900
O113        O  0.38894929  0.98554094  0.97978127    -0.80200
O114        O  0.35298387  0.01155108  0.06608479    -0.90400
C115        C  0.50940844  0.98803846  0.85736225     0.83500
O116        O  0.43965647  0.09690506  0.06984524    -0.68600
O117        O  0.63832534  0.96786147  0.94467903    -0.87900
C118        C  0.46023957  0.11398630  0.02119905     0.84300
C119        C  0.34894740  0.99582502  0.02016999     1.05900
H120        H  0.55741020  0.04693839  0.95866535     0.37700
O121        O  0.54032343  0.00608344  0.96401809    -1.10600
O122        O  0.52273967  0.90419426  0.02626726    -0.67200
Ni123      Ni  0.52715285  0.98730081  0.03723124     1.26300
O124        O  0.46869681  0.07894249  0.98159394    -0.67500
O125        O  0.60234487  0.99780278  0.02947830    -0.79700
C126        C  0.48674988  0.00094080  0.14869669     0.83700
O127        O  0.51143642  0.97031262  0.11064996    -0.66900
Ni128      Ni  0.58530592  0.96296556  0.90843843     1.27400
Ni129      Ni  0.46483096  0.99619281  0.97084155     1.26100
H130        H  0.43489370  0.93718683  0.04955523     0.38200
O131        O  0.48155415  0.04747217  0.63080241    -0.81700
O132        O  0.50288039  0.02785081  0.38775363    -0.66400
O133        O  0.47089751  0.99198830  0.53487994    -1.13000
C134        C  0.65963337  0.98673404  0.48013791     1.05200
O135        O  0.55409367  0.96049853  0.35662998    -0.79600
O136        O  0.56681376  0.89291862  0.42855169    -0.67200
Ni137      Ni  0.43127685  0.03883828  0.59068358     1.34900
C138        C  0.54328230  0.87512454  0.47675651     0.83900
O139        O  0.41056699  0.00909558  0.47048008    -0.80200
O140        O  0.37568931  0.03318044  0.55772132    -0.90400
C141        C  0.52606981  0.99579759  0.35001408     0.83500
O142        O  0.46684224  0.11382449  0.55884543    -0.68600
O143        O  0.65661310  0.97463492  0.43325034    -0.87900
C144        C  0.48907314  0.13060491  0.51021020     0.84300
C145        C  0.37153215  0.02078673  0.51120521     1.05900
H146        H  0.57951608  0.05355614  0.45009478     0.37700
O147        O  0.55989993  0.01349749  0.45509568    -1.10600
O148        O  0.53416964  0.90930792  0.51724491    -0.67200
Ni149      Ni  0.54479980  0.99311950  0.52835267     1.26300
O150        O  0.49656940  0.09540745  0.47057504    -0.67500
O151        O  0.61932252  0.99629382  0.52037051    -0.79700
C152        C  0.50543277  0.00902292  0.63975486     0.83700
O153        O  0.52651962  0.97532272  0.60246243    -0.66900
Ni154      Ni  0.60216376  0.96883744  0.39882577     1.27400
Ni155      Ni  0.48554941  0.01152325  0.46163738     1.26100
H156        H  0.45062980  0.95221382  0.54075215     0.38200
O157        O  0.44955734  0.53159187  0.14041931    -0.81700
O158        O  0.47508686  0.51675771  0.89512336    -0.66400
O159        O  0.44222425  0.47990496  0.04240297    -1.13000
C160        C  0.63191098  0.47750732  0.98601921     1.05200
O161        O  0.52177921  0.44585163  0.86713175    -0.79600
O162        O  0.54107960  0.38235814  0.93679769    -0.67200
Ni163      Ni  0.40138228  0.52534933  0.09846668     1.34900
C164        C  0.51492429  0.36422683  0.98452203     0.83900
O165        O  0.38261873  0.49620289  0.97759831    -0.80200
O166        O  0.34719821  0.52175539  0.06405551    -0.90400
C167        C  0.49538563  0.48189300  0.85862790     0.83500
O168        O  0.43904029  0.60022112  0.06812632    -0.68600
O169        O  0.62914251  0.46740942  0.93872748    -0.87900
C170        C  0.46208894  0.61802884  0.01982573     0.84300
C171        C  0.34324622  0.50806515  0.01770254     1.05900
H172        H  0.55087105  0.54239342  0.95817435     0.37700
O173        O  0.53124121  0.50235956  0.96291207    -1.10600
O174        O  0.50445812  0.39832822  0.02467777    -0.67200
Ni175      Ni  0.51626971  0.48146942  0.03574592     1.26300
O176        O  0.46810160  0.58356166  0.97966945    -0.67500
O177        O  0.59110972  0.48422846  0.02698411    -0.79700
C178        C  0.47606036  0.49473444  0.14737382     0.83700
O179        O  0.49855534  0.46269252  0.10932889    -0.66900
Ni180      Ni  0.57299800  0.45819974  0.90620522     1.27400
Ni181      Ni  0.45727526  0.49992757  0.96924961     1.26100
H182        H  0.42203801  0.44013682  0.04765521     0.38200
O183        O  0.45534477  0.53361819  0.63873545    -0.81700
O184        O  0.48613231  0.52517329  0.39033020    -0.66400
O185        O  0.45637125  0.48779723  0.53667190    -1.13000
C186        C  0.64904799  0.50157709  0.48057623     1.05200
O187        O  0.54230364  0.46324380  0.35808182    -0.79600
O188        O  0.56434137  0.40072548  0.42727938    -0.67200
Ni189      Ni  0.41415337  0.53432499  0.59086157     1.34900
C190        C  0.54005026  0.38061667  0.47463676     0.83900
O191        O  0.39482383  0.49521344  0.47164391    -0.80200
O192        O  0.36459929  0.53762386  0.55184429    -0.90400
C193        C  0.51131575  0.49530689  0.35197456     0.83500
O194        O  0.45884512  0.60762892  0.56212104    -0.68600
O195        O  0.64690142  0.49124227  0.43318212    -0.87900
C196        C  0.47341012  0.62557603  0.51401096     0.84300
C197        C  0.35765168  0.51482091  0.50875675     1.05900
H198        H  0.56127580  0.55893562  0.45386360     0.37700
O199        O  0.54510607  0.51773209  0.45750147    -1.10600
O200        O  0.52667218  0.41282131  0.51604041    -0.67200
Ni201      Ni  0.53149139  0.49557919  0.53005355     1.26300
O202        O  0.47309379  0.59095998  0.47460286    -0.67500
O203        O  0.60722267  0.50463983  0.52180865    -0.79700
C204        C  0.48545288  0.49969520  0.64372396     0.83700
O205        O  0.51444220  0.47492028  0.60333555    -0.66900
Ni206      Ni  0.59156059  0.47849828  0.39946722     1.27400
Ni207      Ni  0.47012659  0.50744150  0.46362346     1.26100
H208        H  0.43811461  0.44730606  0.54270487     0.38200
C209        C  0.52389673  0.45638930  0.76130143    -0.10000
C210        C  0.48885054  0.48262701  0.80495131     0.06200
C211        C  0.44982610  0.50979128  0.79554286    -0.03700
C212        C  0.44979412  0.51435728  0.74299745    -0.08200
C213        C  0.48678109  0.49079889  0.69871139     0.05300
C214        C  0.52275875  0.45931179  0.70892172    -0.03200
Br215      Br  0.57141320  0.41826996  0.65481193    -0.02900
H216        H  0.55318366  0.43383209  0.76766288     0.09200
H217        H  0.41996051  0.53635318  0.73704909     0.07300
Br218      Br  0.39329177  0.53902455  0.85202264    -0.03300
C219        C  0.50233837  0.44404532  0.26886500    -0.10000
C220        C  0.50218189  0.49546482  0.29982056     0.06200
C221        C  0.49268810  0.54582785  0.28050659    -0.03700
C222        C  0.48333394  0.54389627  0.23142541    -0.08200
C223        C  0.48397345  0.49277702  0.20006706     0.05300
C224        C  0.49307759  0.44210171  0.21954073    -0.03200
Br225      Br  0.49032394  0.36793955  0.18297560    -0.02900
H226        H  0.50876186  0.40476153  0.28355202     0.09200
H227        H  0.47705621  0.58340290  0.21699159     0.07300
Br228      Br  0.49644930  0.62020129  0.31644459    -0.03300
C229        C  0.52928064  0.72166159  0.52589911    -0.10000
C230        C  0.49123988  0.68926164  0.50344169     0.06200
C231        C  0.47075425  0.71850164  0.47170033    -0.03700
C232        C  0.48835018  0.77903505  0.46316160    -0.08200
C233        C  0.52593800  0.81136810  0.48613810     0.05300
C234        C  0.54710005  0.78205419  0.51698637    -0.03200
Br235      Br  0.60352048  0.82180472  0.54410159    -0.02900
H236        H  0.54605884  0.69966947  0.54957557     0.09200
H237        H  0.47187114  0.80116360  0.43929785     0.07300
Br238      Br  0.41570107  0.67892153  0.44253401    -0.03300
C239        C  0.49050081  0.21770088  0.45971551    -0.10000
C240        C  0.50533450  0.19427626  0.49918896     0.06200
C241        C  0.53268533  0.23257753  0.52942931    -0.03700
C242        C  0.54328539  0.29309718  0.52104612    -0.08200
C243        C  0.52767837  0.31653675  0.48227123     0.05300
C244        C  0.50116065  0.27832356  0.45130219    -0.03200
Br245      Br  0.47472460  0.30710319  0.40038106    -0.02900
H246        H  0.46887719  0.18889461  0.43661190     0.09200
H247        H  0.56454414  0.32200513  0.54442073     0.07300
Br248      Br  0.55918671  0.20434019  0.58047709    -0.03300
C249        C  0.45698507  0.72032205  0.05087312    -0.10000
C250        C  0.48109563  0.68215103  0.01051519     0.06200
C251        C  0.52174289  0.70654310  0.96277526    -0.03700
C252        C  0.53610810  0.76737135  0.95613486    -0.08200
C253        C  0.51139357  0.80545909  0.99622741     0.05300
C254        C  0.47148795  0.78106493  0.04436160    -0.03200
Br255      Br  0.43233266  0.82667581  0.10222609    -0.02900
H256        H  0.42552709  0.70284270  0.08769707     0.09200
H257        H  0.56752927  0.78500995  0.91934560     0.07300
Br258      Br  0.56161474  0.66063778  0.90571629    -0.03300
C259        C  0.52804019  0.26327595  0.95652999    -0.10000
C260        C  0.49791174  0.30018521  0.99354513     0.06200
C261        C  0.45349376  0.27481611  0.03818853    -0.03700
C262        C  0.44261257  0.21434470  0.04656268    -0.08200
C263        C  0.47378660  0.17766109  0.01021971     0.05300
C264        C  0.51615480  0.20276206  0.96394942    -0.03200
Br265      Br  0.56138719  0.15847922  0.90977926    -0.02900
H266        H  0.56192578  0.28164041  0.92171597     0.09200
H267        H  0.40857391  0.19570090  0.08114855     0.07300
Br268      Br  0.40323648  0.31864709  0.08692999    -0.03300
C269        C  0.54078198  0.96590790  0.75919244    -0.10000
C270        C  0.50727005  0.99455886  0.80222817     0.06200
C271        C  0.47484034  0.02972566  0.79049141    -0.03700
C272        C  0.47555438  0.03380839  0.73751741    -0.08200
C273        C  0.50855405  0.00447326  0.69469872     0.05300
C274        C  0.54223856  0.97089682  0.70618238    -0.03200
Br275      Br  0.59353285  0.93243138  0.65233668    -0.02900
H276        H  0.56703678  0.93970064  0.76643303     0.09200
H277        H  0.44962718  0.06023863  0.72996384     0.07300
Br278      Br  0.42900991  0.07474125  0.84326184    -0.03300
C279        C  0.46523320  0.00181595  0.29824020    -0.10000
C280        C  0.51721413  0.99724900  0.29804451     0.06200
C281        C  0.55933285  0.99510857  0.24848890    -0.03700
C282        C  0.54850309  0.99677057  0.20036979    -0.08200
C283        C  0.49631720  0.00093476  0.20056588     0.05300
C284        C  0.45446556  0.00386918  0.25021550    -0.03200
Br285      Br  0.38107868  0.00743550  0.25568183    -0.02900
H286        H  0.43242742  0.00270573  0.33610234     0.09200
H287        H  0.58134476  0.99592982  0.16252897     0.07300
Br288      Br  0.63301114  0.99377682  0.24376490    -0.03300
C289        C  0.80182536  0.53710996  0.45722571    -0.10000
C290        C  0.80382304  0.51592523  0.50495828     0.06200
C291        C  0.75458244  0.49094880  0.54469424    -0.03700
C292        C  0.70489677  0.48774490  0.53609036    -0.08200
C293        C  0.70275028  0.50868864  0.48835591     0.05300
C294        C  0.75203139  0.53418410  0.44879264    -0.03200
Br295      Br  0.75435055  0.56921702  0.38397661    -0.02900
H296        H  0.83922190  0.55707380  0.42662138     0.09200
H297        H  0.66773044  0.46729746  0.56641320     0.07300
Br298      Br  0.75226690  0.45646802  0.60980706    -0.03300
C299        C  0.30342924  0.52016064  0.44906178    -0.10000
C300        C  0.30449659  0.51199728  0.50095788     0.06200
C301        C  0.25469722  0.50048629  0.54401050    -0.03700
C302        C  0.20541308  0.49642640  0.53444206    -0.08200
C303        C  0.20400492  0.50421192  0.48254842     0.05300
C304        C  0.25407790  0.51718192  0.43956182    -0.03200
Br305      Br  0.25911392  0.53511308  0.36769107    -0.02900
H306        H  0.34139958  0.53010320  0.41574946     0.09200
H307        H  0.16774801  0.48623432  0.56804597     0.07300
Br308      Br  0.25035093  0.48639024  0.61645881    -0.03300
C309        C  0.74335286  0.47859056  0.04683784    -0.10000
C310        C  0.79066976  0.49826386  0.00317450     0.06200
C311        C  0.78514750  0.51045747  0.95374089    -0.03700
C312        C  0.73317312  0.50245001  0.94908649    -0.08200
C313        C  0.68585155  0.48312302  0.99295796     0.05300
C314        C  0.69150428  0.47089783  0.04229916    -0.03200
Br315      Br  0.63113759  0.44077656  0.10471496    -0.02900
H316        H  0.74658994  0.46822517  0.08493500     0.09200
H317        H  0.72977769  0.51286904  0.91107995     0.07300
Br318      Br  0.84583213  0.54180157  0.89197433    -0.05700
C319        C  0.20133667  0.53136734  0.03160522    -0.10000
C320        C  0.18707075  0.48920148  0.99558660     0.06200
C321        C  0.22506606  0.45407216  0.96656835    -0.03700
C322        C  0.27558859  0.46157460  0.97425371    -0.08200
C323        C  0.28978896  0.50368440  0.01025617     0.05300
C324        C  0.25228344  0.53940404  0.03862798    -0.03200
Br325      Br  0.26951030  0.60309264  0.08396412    -0.02900
H326        H  0.17331361  0.55961226  0.05330414     0.09200
H327        H  0.30373408  0.43350578  0.95238811     0.07300
Br328      Br  0.21043409  0.39302524  0.91769921    -0.03300
C329        C  0.99403034  0.55332470  0.72757804    -0.10000
C330        C  0.99810776  0.50448567  0.69325836     0.06200
C331        C  0.00550859  0.45235049  0.71176833    -0.03700
C332        C  0.00818173  0.45012045  0.76373255    -0.08200
C333        C  0.00322401  0.49880396  0.79842006     0.05300
C334        C  0.99688201  0.55119371  0.77933981    -0.03200
Br335      Br  0.99506346  0.62284044  0.81989486    -0.02900
H336        H  0.98920574  0.59398535  0.71382393     0.09200
H337        H  0.01298416  0.40945974  0.77748184     0.07300
Br338      Br  0.00846078  0.38137556  0.67007547    -0.03300
C339        C  0.95583279  0.52066936  0.29643151    -0.10000
C340        C  0.00309120  0.50386673  0.29835002     0.06200
C341        C  0.04083306  0.48766278  0.25003035    -0.03700
C342        C  0.03053489  0.48816592  0.20150511    -0.08200
C343        C  0.98312043  0.50464029  0.19944698     0.05300
C344        C  0.94528490  0.52075532  0.24792201    -0.03200
Br345      Br  0.87675400  0.53980250  0.25229151    -0.02900
H346        H  0.92605436  0.53247642  0.33320470     0.09200
H347        H  0.06045062  0.47627530  0.16489327     0.07300
Br348      Br  0.10870657  0.46726432  0.24636323    -0.03300
C349        C  0.02132327  0.72010329  0.45556268    -0.10000
C350        C  0.99385817  0.69836162  0.50827723     0.06200
C351        C  0.98621430  0.73926801  0.55131497    -0.03700
C352        C  0.00455748  0.79925547  0.54066274    -0.08200
C353        C  0.03173099  0.82106175  0.48799958     0.05300
C354        C  0.04041959  0.78013412  0.44501384    -0.03200
Br355      Br  0.07780331  0.80113513  0.37047254    -0.02900
H356        H  0.02836187  0.69013588  0.42175524     0.09200
H357        H  0.99733734  0.82916698  0.57443396     0.07300
Br358      Br  0.95192400  0.71845428  0.62625456    -0.03300
C359        C  0.98010875  0.29653664  0.53335534    -0.10000
C360        C  0.02145370  0.31775112  0.48536608     0.06200
C361        C  0.04823600  0.27712184  0.44923886    -0.03700
C362        C  0.03321094  0.21731145  0.46158397    -0.08200
C363        C  0.99177315  0.19608215  0.50951756     0.05300
C364        C  0.96484958  0.23668750  0.54551692    -0.03200
Br365      Br  0.90455000  0.21413961  0.61035629    -0.02900
H366        H  0.95861748  0.32668331  0.56143383     0.09200
H367        H  0.05474776  0.18717019  0.43354134     0.07300
Br368      Br  0.10756334  0.29953326  0.38355169    -0.03300
C369        C  0.80304178  0.96837455  0.46703121    -0.10000
C370        C  0.81382805  0.00693624  0.50713819     0.06200
C371        C  0.77346860  0.03849116  0.53783083    -0.03700
C372        C  0.72370016  0.03032855  0.52854761    -0.08200
C373        C  0.71286862  0.99187015  0.48848096     0.05300
C374        C  0.75333659  0.96061895  0.45741039    -0.03200
Br375      Br  0.74310075  0.90474002  0.40296770    -0.02900
H376        H  0.83329092  0.94347501  0.44323999     0.09200
H377        H  0.69363532  0.05553188  0.55216543     0.07300
Br378      Br  0.78420072  0.09662205  0.59044047    -0.03300
C379        C  0.27087156  0.99016239  0.54450976    -0.10000
C380        C  0.31795489  0.01879832  0.50500135     0.06200
C381        C  0.31269960  0.04488577  0.46081847    -0.03700
C382        C  0.26110641  0.03983169  0.45575740    -0.08200
C383        C  0.21400102  0.01022479  0.49482073     0.05300
C384        C  0.21923017  0.98562142  0.53983376    -0.03200
Br385      Br  0.15821562  0.94174194  0.59435607    -0.02900
H386        H  0.27439471  0.97001168  0.57870035     0.09200
H387        H  0.25766888  0.05999944  0.42153359     0.07300
Br388      Br  0.37375086  0.09176113  0.40871981    -0.03300
C389        C  0.00102770  0.78358218  0.04357593    -0.10000
C390        C  0.00510083  0.80792145  0.99477565     0.06200
C391        C  0.99143960  0.77038751  0.95492789    -0.03700
C392        C  0.97577948  0.70998907  0.96404326    -0.08200
C393        C  0.97267416  0.68560036  0.01249158     0.05300
C394        C  0.98518911  0.72327113  0.05273689    -0.03200
Br395      Br  0.98506480  0.69572790  0.11987501    -0.02900
H396        H  0.01149592  0.81153464  0.07453173     0.09200
H397        H  0.96502756  0.68193862  0.93331378     0.07300
Br398      Br  0.99003355  0.79824561  0.88847933    -0.03300
C399        C  0.03809283  0.27224809  0.96480621    -0.10000
C400        C  0.00348557  0.30845741  0.99694349     0.06200
C401        C  0.95740682  0.28333274  0.04023338    -0.03700
C402        C  0.94639871  0.22306509  0.04960639    -0.08200
C403        C  0.98059951  0.18671431  0.01690734     0.05300
C404        C  0.02758933  0.21220836  0.97470405    -0.03200
Br405      Br  0.08162823  0.16926072  0.93146372    -0.02900
H406        H  0.07458048  0.29107847  0.93256129     0.09200
H407        H  0.91003720  0.20431394  0.08200823     0.07300
Br408      Br  0.90597796  0.32745571  0.08646972    -0.03300
C409        C  0.74094212  0.02441005  0.96371556    -0.10000
C410        C  0.69467037  0.98930538  0.99887534     0.06200
C411        C  0.69952210  0.96072758  0.04191218    -0.03700
C412        C  0.75013825  0.96852044  0.04972856    -0.08200
C413        C  0.79653890  0.00381321  0.01461615     0.05300
C414        C  0.79157613  0.03208510  0.97134771    -0.03200
Br415      Br  0.85151916  0.08469093  0.92357545    -0.02900
H416        H  0.73740593  0.04699779  0.93084053     0.09200
H417        H  0.75357234  0.94573455  0.08253653     0.07300
Br418      Br  0.63928227  0.90728218  0.08843466    -0.03300
C419        C  0.29376450  0.01083118  0.96460371    -0.10000
C420        C  0.29535313  0.99141736  0.01309973     0.06200
C421        C  0.24576010  0.97098941  0.05445040    -0.03700
C422        C  0.19607993  0.97033843  0.04657595    -0.08200
C423        C  0.19449644  0.98963189  0.99792663     0.05300
C424        C  0.24419654  0.01076142  0.95682054    -0.03200
Br425      Br  0.24786343  0.04436204  0.89076333    -0.02900
H426        H  0.33139307  0.02787323  0.93308665     0.09200
H427        H  0.15842629  0.95350399  0.07837016     0.07300
Br428      Br  0.24285061  0.94013521  0.12130687    -0.03300
C429        C  0.99908731  0.05590413  0.73572233    -0.10000
C430        C  0.00166508  0.00652880  0.70193436     0.06200
C431        C  0.00492525  0.95319860  0.72184425    -0.03700
C432        C  0.00629946  0.95044711  0.77411698    -0.08200
C433        C  0.00423429  0.99991749  0.80772374     0.05300
C434        C  0.00075429  0.05325146  0.78794692    -0.03200
Br435      Br  0.00231325  0.12515922  0.82815211    -0.02900
H436        H  0.99692690  0.09731017  0.72102979     0.09200
H437        H  0.00841655  0.90900058  0.78878278     0.07300
Br438      Br  0.00421612  0.88152169  0.68145054    -0.03300
C439        C  0.03998652  0.98269325  0.20660408    -0.10000
C440        C  0.99445963  0.00343345  0.20462859     0.06200
C441        C  0.95931411  0.02346783  0.25290405    -0.03700
C442        C  0.97055794  0.02292793  0.30100580    -0.08200
C443        C  0.01603905  0.00212619  0.30305975     0.05300
C444        C  0.05103672  0.98173813  0.25481315    -0.03200
Br445      Br  0.11570968  0.95355428  0.25032977    -0.02900
H446        H  0.06777177  0.96751530  0.17013690     0.09200
H447        H  0.94263330  0.03802514  0.33741760     0.07300
Br448      Br  0.89331538  0.04900689  0.25775023    -0.03300
loop_ 
_geom_bond_atom_site_label_1 
_geom_bond_atom_site_label_2 
_geom_bond_distance 
_geom_bond_site_symmetry_2 
_ccdc_geom_bond_type 
O1           Ni7   1.938       .  S
O1           C22   1.273       .  A
O2          Ni25   1.899       .  S
O2           C11   1.264   1_645  A
O3           Ni7   1.914   1_565  S
O3          Ni25   1.905   1_564  S
O3          Ni19   1.908   1_655  S
O3           H26   0.966       .  S
C4           O21   1.275   1_556  A
C4           O13   1.274       .  A
C4          C423   1.479       .  S
O5          Ni24   1.928       .  S
O5           C11   1.270       .  A
O6          Ni24   1.900       .  S
O6            C8   1.267       .  A
Ni7          O10   1.933       .  S
Ni7          O12   1.911       .  S
C8           O18   1.273   1_556  A
C8          C390   1.480       .  S
O9          Ni25   1.906       .  S
O9           C15   1.272   1_556  A
O10          C15   1.277       .  A
C11         C433   1.478       .  S
O12          C14   1.270       .  A
O13         Ni24   1.920       .  S
C14          O20   1.268   1_554  A
C14         C403   1.479       .  S
C15         C413   1.475       .  S
H16          O17   0.964       .  S
O17         Ni25   1.905   1_455  S
O17         Ni19   1.903   1_546  S
O17         Ni24   1.911   1_545  S
O18         Ni19   1.925       .  S
Ni19         O23   1.904       .  S
Ni19         O21   1.913       .  S
O20         Ni25   1.916       .  S
C22          O23   1.269   1_645  A
C22         C440   1.488       .  S
O27         Ni33   1.931       .  S
O27          C48   1.272       .  A
O28         Ni51   1.899   1_455  S
O28          C37   1.266       .  A
O29         Ni33   1.913   1_565  S
O29         Ni51   1.903   1_565  S
O29         Ni45   1.904   1_665  S
O29          H52   0.966       .  S
C30          O47   1.273       .  A
C30          O39   1.275   1_545  A
C30         C383   1.478       .  S
O31         Ni50   1.935       .  S
O31          C37   1.270   1_565  A
O32         Ni50   1.907       .  S
O32          C34   1.266       .  A
Ni33         O36   1.927       .  S
Ni33         O38   1.908       .  S
C34          O44   1.273       .  A
C34         C353   1.497       .  S
O35         Ni51   1.904       .  S
O35          C41   1.272       .  A
O36          C41   1.275       .  A
C37         C443   1.489       .  S
O38          C40   1.267       .  A
O39         Ni50   1.925       .  S
C40          O46   1.272       .  A
C40         C363   1.488       .  S
C41         C370   1.481       .  S
H42          O43   0.966       .  S
O43         Ni51   1.908   1_455  S
O43         Ni45   1.910       .  S
O43         Ni50   1.917   1_545  S
O44         Ni45   1.928   1_565  S
Ni45         O49   1.903   1_545  S
Ni45         O47   1.910       .  S
O46         Ni51   1.926       .  S
C48          O49   1.267   1_645  A
C48         C430   1.480   1_655  S
O53         Ni59   1.932       .  S
O53          C74   1.270       .  A
O54         Ni77   1.902       .  S
O54          C63   1.266   1_655  A
O55         Ni59   1.915       .  S
O55         Ni77   1.909   1_554  S
O55         Ni71   1.909   1_655  S
O55          H78   0.964       .  S
C56          O73   1.275   1_556  A
C56          O65   1.275       .  A
C56         C320   1.481       .  S
O57         Ni76   1.935       .  S
O57          C63   1.273       .  A
O58         Ni76   1.910       .  S
O58          C60   1.270       .  A
Ni59         O62   1.918       .  S
Ni59         O64   1.901       .  S
C60          O70   1.268   1_556  A
C60         C400   1.478       .  S
O61         Ni77   1.909       .  S
O61          C67   1.271   1_556  A
O62          C67   1.275       .  A
C63         C333   1.485       .  S
O64          C66   1.267       .  A
O65         Ni76   1.924       .  S
C66          O72   1.273   1_554  A
C66         C393   1.480       .  S
C67         C310   1.481       .  S
H68          O69   0.966       .  S
O69         Ni77   1.903   1_455  S
O69         Ni71   1.906   1_556  S
O69         Ni76   1.915       .  S
O70         Ni71   1.919       .  S
Ni71         O75   1.900       .  S
Ni71         O73   1.910       .  S
O72         Ni77   1.927       .  S
C74          O75   1.266   1_655  A
C74         C343   1.484       .  S
O79         Ni85   1.930       .  S
O79         C100   1.272       .  A
O80        Ni103   1.900       .  S
O80          C89   1.267   1_655  A
O81         Ni85   1.916       .  S
O81        Ni103   1.910       .  S
O81         Ni97   1.911   1_655  S
O81         H104   0.966       .  S
C82          O99   1.275       .  A
C82          O91   1.276       .  A
C82         C303   1.486       .  S
O83        Ni102   1.931       .  S
O83          C89   1.271       .  A
O84        Ni102   1.906       .  S
O84          C86   1.266       .  A
Ni85         O88   1.925       .  S
Ni85         O90   1.905       .  S
C86          O96   1.270       .  A
C86         C360   1.487       .  S
O87        Ni103   1.906       .  S
O87          C93   1.271       .  A
O88          C93   1.274       .  A
C89         C340   1.479       .  S
O90          C92   1.266       .  A
O91        Ni102   1.929       .  S
C92          O98   1.274       .  A
C92         C350   1.497       .  S
C93         C290   1.477       .  S
H94          O95   0.966       .  S
O95        Ni103   1.902   1_455  S
O95         Ni97   1.900       .  S
O95        Ni102   1.912       .  S
O96         Ni97   1.924       .  S
Ni97        O101   1.900       .  S
Ni97         O99   1.907       .  S
O98        Ni103   1.932       .  S
C100        O101   1.264   1_655  A
C100        C330   1.481       .  S
O105       Ni111   1.932       .  S
O105        C126   1.270       .  A
O106       Ni129   1.901   1_545  S
O106        C115   1.264   1_545  A
O107       Ni111   1.921   1_565  S
O107       Ni129   1.907   1_554  S
O107       Ni123   1.906       .  S
O107        H130   0.961       .  S
C108        O125   1.268   1_556  A
C108        O117   1.274       .  A
C108        C410   1.470       .  S
O109       Ni128   1.930       .  S
O109        C115   1.273       .  A
O110       Ni128   1.906       .  S
O110        C112   1.270       .  A
Ni111       O114   1.921       .  S
Ni111       O116   1.906       .  S
C112        O122   1.270   1_556  A
C112        C253   1.485       .  S
O113       Ni129   1.910       .  S
O113        C119   1.274   1_556  A
O114        C119   1.273   1_545  A
C115        C270   1.493       .  S
O116        C118   1.269       .  A
O117       Ni128   1.930       .  S
C118        O124   1.268   1_554  A
C118        C263   1.479       .  S
C119        C420   1.477       .  S
H120        O121   0.966       .  S
O121       Ni129   1.915   1_545  S
O121       Ni123   1.907   1_546  S
O121       Ni128   1.920   1_545  S
O122       Ni123   1.925       .  S
Ni123       O127   1.889       .  S
Ni123       O125   1.900       .  S
O124       Ni129   1.918   1_545  S
C126        O127   1.263   1_545  A
C126        C283   1.472       .  S
O131       Ni137   1.936       .  S
O131        C152   1.273       .  A
O132       Ni155   1.891       .  S
O132        C141   1.265   1_545  A
O133       Ni137   1.915   1_565  S
O133       Ni155   1.905   1_565  S
O133       Ni149   1.903       .  S
O133        H156   0.966       .  S
C134        O151   1.272       .  A
C134        O143   1.274       .  A
C134        C373   1.480       .  S
O135       Ni154   1.930       .  S
O135        C141   1.271       .  A
O136       Ni154   1.909       .  S
O136        C138   1.268       .  A
Ni137       O140   1.927       .  S
Ni137       O142   1.910       .  S
C138        O148   1.273       .  A
C138        C233   1.476       .  S
O139       Ni155   1.911       .  S
O139        C145   1.274       .  A
O140        C145   1.276       .  A
C141        C280   1.470       .  S
O142        C144   1.269       .  A
O143       Ni154   1.927       .  S
C144        O150   1.270       .  A
C144        C240   1.479       .  S
C145        C380   1.475       .  S
H146        O147   0.966       .  S
O147       Ni155   1.911       .  S
O147       Ni149   1.908   1_545  S
O147       Ni154   1.919   1_545  S
O148       Ni149   1.933       .  S
Ni149       O153   1.901       .  S
Ni149       O151   1.901       .  S
O150       Ni155   1.928       .  S
C152        O153   1.265   1_545  A
C152        C273   1.490       .  S
O157       Ni163   1.931       .  S
O157        C178   1.273       .  A
O158       Ni181   1.898       .  S
O158        C167   1.264       .  A
O159       Ni163   1.911       .  S
O159       Ni181   1.904   1_554  S
O159       Ni175   1.904       .  S
O159        H182   0.965       .  S
C160        O177   1.272   1_556  A
C160        O169   1.277       .  A
C160        C313   1.481       .  S
O161       Ni180   1.932       .  S
O161        C167   1.272       .  A
O162       Ni180   1.903       .  S
O162        C164   1.268       .  A
Ni163       O166   1.927       .  S
Ni163       O168   1.905       .  S
C164        O174   1.267   1_556  A
C164        C260   1.481       .  S
O165       Ni181   1.901       .  S
O165        C171   1.272   1_556  A
O166        C171   1.275       .  A
C167        C210   1.484       .  S
O168        C170   1.269       .  A
O169       Ni180   1.924       .  S
C170        O176   1.270   1_554  A
C170        C250   1.487       .  S
C171        C323   1.478       .  S
H172        O173   0.966       .  S
O173       Ni181   1.900       .  S
O173       Ni175   1.902   1_556  S
O173       Ni180   1.913       .  S
O174       Ni175   1.918       .  S
Ni175       O179   1.895       .  S
Ni175       O177   1.907       .  S
O176       Ni181   1.927       .  S
C178        O179   1.263       .  A
C178        C223   1.478       .  S
O183       Ni189   1.930       .  S
O183        C204   1.274       .  A
O184       Ni207   1.889       .  S
O184        C193   1.261       .  A
O185       Ni189   1.917       .  S
O185       Ni207   1.905       .  S
O185       Ni201   1.911       .  S
O185        H208   0.966       .  S
C186        O203   1.275       .  A
C186        O195   1.274       .  A
C186        C293   1.481       .  S
O187       Ni206   1.934       .  S
O187        C193   1.271       .  A
O188       Ni206   1.908       .  S
O188        C190   1.268       .  A
Ni189       O192   1.937       .  S
Ni189       O194   1.910       .  S
C190        O200   1.271       .  A
C190        C243   1.476       .  S
O191       Ni207   1.898       .  S
O191        C197   1.269       .  A
O192        C197   1.275       .  A
C193        C220   1.475       .  S
O194        C196   1.269       .  A
O195       Ni206   1.923       .  S
C196        O202   1.273       .  A
C196        C230   1.479       .  S
C197        C300   1.479       .  S
H198        O199   0.966       .  S
O199       Ni207   1.905       .  S
O199       Ni201   1.910       .  S
O199       Ni206   1.921       .  S
O200       Ni201   1.926       .  S
Ni201       O205   1.902       .  S
Ni201       O203   1.914       .  S
O202       Ni207   1.939       .  S
C204        O205   1.266       .  A
C204        C213   1.491       .  S
C209        C210   1.406       .  A
C209        C214   1.398       .  A
C209        H216   1.083       .  S
C210        C211   1.412       .  A
C211        C212   1.397       .  A
C211       Br218   1.924       .  S
C212        C213   1.409       .  A
C212        H217   1.083       .  S
C213        C214   1.416       .  A
C214       Br215   1.921       .  S
C219        C220   1.403       .  A
C219        C224   1.398       .  A
C219        H226   1.084       .  S
C220        C221   1.411       .  A
C221        C222   1.393       .  A
C221       Br228   1.919       .  S
C222        C223   1.403       .  A
C222        H227   1.084       .  S
C223        C224   1.414       .  A
C224       Br225   1.922       .  S
C229        C230   1.404       .  A
C229        C234   1.400       .  A
C229        H236   1.084       .  S
C230        C231   1.412       .  A
C231        C232   1.402       .  A
C231       Br238   1.920       .  S
C232        C233   1.403       .  A
C232        H237   1.084       .  S
C233        C234   1.408       .  A
C234       Br235   1.917       .  S
C239        C240   1.406       .  A
C239        C244   1.402       .  A
C239        H246   1.083       .  S
C240        C241   1.410       .  A
C241        C242   1.399       .  A
C241       Br248   1.920       .  S
C242        C243   1.403       .  A
C242        H247   1.084       .  S
C243        C244   1.410       .  A
C244       Br245   1.922       .  S
C249        C250   1.406       .  A
C249        C254   1.397       .  A
C249        H256   1.083       .  S
C250        C251   1.415   1_554  A
C251        C252   1.399       .  A
C251       Br258   1.922       .  S
C252        C253   1.406       .  A
C252        H257   1.083       .  S
C253        C254   1.415   1_556  A
C254       Br255   1.922       .  S
C259        C260   1.404       .  A
C259        C264   1.394       .  A
C259        H266   1.083       .  S
C260        C261   1.414   1_556  A
C261        C262   1.398       .  A
C261       Br268   1.921       .  S
C262        C263   1.405       .  A
C262        H267   1.084       .  S
C263        C264   1.414   1_554  A
C264       Br265   1.921       .  S
C269        C270   1.407       .  A
C269        C274   1.397       .  A
C269        H276   1.083       .  S
C270        C271   1.417   1_565  A
C271        C272   1.400       .  A
C271       Br278   1.922       .  S
C272        C273   1.407       .  A
C272        H277   1.083       .  S
C273        C274   1.415   1_545  A
C274       Br275   1.921       .  S
C279        C280   1.402   1_545  A
C279        C284   1.394       .  A
C279        H286   1.083       .  S
C280        C281   1.409       .  A
C281        C282   1.396       .  A
C281       Br288   1.921       .  S
C282        C283   1.405   1_565  A
C282        H287   1.083       .  S
C283        C284   1.410       .  A
C284       Br285   1.920       .  S
C289        C290   1.404       .  A
C289        C294   1.399       .  A
C289        H296   1.084       .  S
C290        C291   1.412       .  A
C291        C292   1.397       .  A
C291       Br298   1.922       .  S
C292        C293   1.403       .  A
C292        H297   1.080       .  S
C293        C294   1.413       .  A
C294       Br295   1.921       .  S
C299        C300   1.404       .  A
C299        C304   1.400       .  A
C299        H306   1.084       .  S
C300        C301   1.411       .  A
C301        C302   1.396       .  A
C301       Br308   1.921       .  S
C302        C303   1.406       .  A
C302        H307   1.084       .  S
C303        C304   1.417       .  A
C304       Br305   1.923       .  S
C309        C310   1.405       .  A
C309        C314   1.394       .  A
C309        H316   1.084       .  S
C310        C311   1.413   1_554  A
C311        C312   1.398       .  A
C311       Br318   1.921       .  S
C312        C313   1.406       .  A
C312        H317   1.083       .  S
C313        C314   1.412   1_556  A
C314       Br315   1.920       .  S
C319        C320   1.405   1_554  A
C319        C324   1.398       .  A
C319        H326   1.083       .  S
C320        C321   1.415       .  A
C321        C322   1.396       .  A
C321       Br328   1.923       .  S
C322        C323   1.403   1_556  A
C322        H327   1.084       .  S
C323        C324   1.411       .  A
C324       Br325   1.921       .  S
C329        C330   1.404       .  A
C329        C334   1.397       .  A
C329        H336   1.084       .  S
C330        C331   1.413   1_655  A
C331        C332   1.400       .  A
C331       Br338   1.923       .  S
C332        C333   1.407       .  A
C332        H337   1.083       .  S
C333        C334   1.414   1_455  A
C334       Br335   1.921       .  S
C339        C340   1.404   1_655  A
C339        C344   1.398       .  A
C339        H346   1.084       .  S
C340        C341   1.412       .  A
C341        C342   1.396       .  A
C341       Br348   1.923       .  S
C342        C343   1.406   1_455  A
C342        H347   1.084       .  S
C343        C344   1.416       .  A
C344       Br345   1.921       .  S
C349        C350   1.408   1_455  A
C349        C354   1.401       .  A
C349        H356   1.083       .  S
C350        C351   1.419       .  A
C351        C352   1.399   1_655  A
C351       Br358   1.925       .  S
C352        C353   1.406       .  A
C352        H357   1.082   1_455  S
C353        C354   1.419       .  A
C354       Br355   1.925       .  S
C359        C360   1.406   1_655  A
C359        C364   1.399       .  A
C359        H366   1.084       .  S
C360        C361   1.415       .  A
C361        C362   1.399       .  A
C361       Br368   1.923       .  S
C362        C363   1.406   1_455  A
C362        H367   1.084       .  S
C363        C364   1.415       .  A
C364       Br365   1.921       .  S
C369        C370   1.406   1_565  A
C369        C374   1.398       .  A
C369        H376   1.084       .  S
C370        C371   1.413       .  A
C371        C372   1.395       .  A
C371       Br378   1.922       .  S
C372        C373   1.404   1_545  A
C372        H377   1.084       .  S
C373        C374   1.413       .  A
C374       Br375   1.922       .  S
C379        C380   1.403   1_565  A
C379        C384   1.398       .  A
C379        H386   1.084       .  S
C380        C381   1.409       .  A
C381        C382   1.399       .  A
C381       Br388   1.920       .  S
C382        C383   1.406       .  A
C382        H387   1.084       .  S
C383        C384   1.412   1_545  A
C384       Br385   1.921       .  S
C389        C390   1.403   1_554  A
C389        C394   1.396   1_455  A
C389        H396   1.084       .  S
C390        C391   1.415   1_455  A
C391        C392   1.398       .  A
C391       Br398   1.924       .  S
C392        C393   1.404   1_556  A
C392        H397   1.083       .  S
C393        C394   1.414       .  A
C394       Br395   1.922       .  S
C399        C400   1.402       .  A
C399        C404   1.396       .  A
C399        H406   1.084       .  S
C400        C401   1.413   1_456  A
C401        C402   1.398       .  A
C401       Br408   1.919       .  S
C402        C403   1.403       .  A
C402        H407   1.084       .  S
C403        C404   1.413   1_654  A
C404       Br405   1.919       .  S
C409        C410   1.401   1_545  A
C409        C414   1.398       .  A
C409        H416   1.084       .  S
C410        C411   1.409   1_556  A
C411        C412   1.399       .  A
C411       Br418   1.920       .  S
C412        C413   1.404   1_565  A
C412        H417   1.084       .  S
C413        C414   1.411   1_554  A
C414       Br415   1.919       .  S
C419        C420   1.401   1_546  A
C419        C424   1.396       .  A
C419        H426   1.081       .  S
C420        C421   1.412       .  A
C421        C422   1.398       .  A
C421       Br428   1.921       .  S
C422        C423   1.404   1_554  A
C422        H427   1.084       .  S
C423        C424   1.414   1_565  A
C424       Br425   1.923       .  S
C429        C430   1.405   1_655  A
C429        C434   1.398   1_655  A
C429        H436   1.084       .  S
C430        C431   1.412   1_545  A
C431        C432   1.397       .  A
C431       Br438   1.920       .  S
C432        C433   1.404       .  A
C432        H437   1.084       .  S
C433        C434   1.412   1_565  A
C434       Br435   1.922       .  S
C439        C440   1.406   1_465  A
C439        C444   1.400       .  A
C439        H446   1.084       .  S
C440        C441   1.415       .  A
C441        C442   1.398       .  A
C441       Br448   1.922       .  S
C442        C443   1.406   1_655  A
C442        H447   1.084       .  S
C443        C444   1.416   1_545  A
C444       Br445   1.923       .  S
