geometry optimzed in LAMMPS
_audit_creation_date              2020-11-30 
_audit_creation_method            'lammps2cif' 
_symmetry_space_group_name_H-M    'P1' 
_symmetry_Int_Tables_number       1 
_symmetry_cell_setting            triclinic 
loop_ 
_symmetry_equiv_pos_as_xyz 
  x,y,z 
_cell_length_a                    57.80909672837461 
_cell_length_b                    57.70502872440616 
_cell_length_c                    57.71699976055176 
_cell_angle_alpha                 89.88716798276134 
_cell_angle_beta                  89.82152989696849 
_cell_angle_gamma                 89.69499552487272 
loop_ 
_atom_site_label 
_atom_site_type_symbol 
_atom_site_fract_x 
_atom_site_fract_y 
_atom_site_fract_z 
_atom_site_charge 
C1          C  0.30506938  0.87916117  0.74572257     0.42140
N2          N  0.32921445  0.86518976  0.72122157     0.01030
C3          C  0.44634923  0.88730677  0.72153898    -0.06850
H4          H  0.39699611  0.96025278  0.71433577     0.06520
C5          C  0.36287654  0.93224876  0.63936533    -0.07200
Co6        Co  0.37714320  0.87683976  0.73408112     0.74180
N7          N  0.38859408  0.92412025  0.71825143    -0.26380
Co8        Co  0.40492703  0.90668595  0.69156740     0.74070
C9          C  0.37084311  0.95391669  0.65070671     0.42240
N10         N  0.33471440  0.87629037  0.65321688     0.00640
N11         N  0.38564379  0.92440757  0.66776150     0.00750
N12         N  0.42567935  0.86678515  0.74747623    -0.47220
H13         H  0.33408816  0.89763242  0.76561522     0.06510
N14         N  0.37745387  0.91251235  0.73431418     0.01040
N15         N  0.42080926  0.88960451  0.66494958     0.00780
C16         C  0.44851938  0.87787713  0.64319382     0.42380
N17         N  0.32639332  0.86432499  0.67085329    -0.25830
C18         C  0.38710597  0.82643744  0.74869243    -0.06750
N19         N  0.30699990  0.86535049  0.72691872    -0.46940
N20         N  0.44343392  0.88999537  0.66223416    -0.47160
C21         C  0.37946805  0.80368803  0.74115634     0.42150
N22         N  0.41232230  0.87610375  0.73165728     0.01020
N23         N  0.36139840  0.82973040  0.66844052    -0.25850
N24         N  0.34184220  0.87730890  0.73558431    -0.26350
N25         N  0.37191791  0.83972649  0.65069120     0.00660
H26         H  0.35477940  0.79451469  0.67842284     0.06550
H27         H  0.42281614  0.85893781  0.61895547     0.06590
N28         N  0.42373543  0.88816347  0.71611580    -0.26400
N29         N  0.37288859  0.91463343  0.65148882    -0.26010
N30         N  0.36496449  0.82949271  0.71888821     0.01030
C31         C  0.37496458  0.94781841  0.74531204     0.42420
C32         C  0.30353638  0.86400049  0.67042490    -0.07260
N33         N  0.40965766  0.87797501  0.64871261    -0.26010
H34         H  0.35131831  0.93025909  0.62481660     0.06570
N35         N  0.36927851  0.92591503  0.75095827    -0.47230
H36         H  0.29292537  0.85444500  0.68252068     0.06560
C37         C  0.37475341  0.80272660  0.64538045     0.42260
C38         C  0.32819752  0.88736862  0.75115652    -0.06760
Co39       Co  0.34535341  0.84698840  0.69478039     0.73820
N40         N  0.31737787  0.88472285  0.64022394    -0.46950
C41         C  0.44742002  0.87307302  0.74267919     0.42530
N42         N  0.36549011  0.80690429  0.72275262    -0.46940
Co43       Co  0.37221275  0.87722589  0.64961191     0.73890
C44         C  0.42607978  0.86927819  0.63419262    -0.07270
C45         C  0.38822421  0.94666452  0.72374127    -0.06830
N46         N  0.37707664  0.84121573  0.73400510    -0.26360
N47         N  0.38492184  0.94717381  0.66772246    -0.47120
H48         H  0.45993427  0.89689000  0.71294409     0.06530
C49         C  0.36224727  0.80684857  0.66645707    -0.07240
Cl50       Cl  0.37491613  0.87695347  0.69203694    -0.50240
C51         C  0.29711768  0.87761637  0.65053418     0.42290
H52         H  0.39717956  0.83117626  0.76369591     0.06500
N53         N  0.38056031  0.82379032  0.63615651    -0.46950
C54         C  0.23630484  0.86952038  0.81694059     0.42140
N55         N  0.22333781  0.86797223  0.85151035     0.01030
C56         C  0.12116401  0.82643634  0.89382234    -0.06850
H57         H  0.11479490  0.90001318  0.83031383     0.06520
C58         C  0.16109637  0.94899076  0.89257000    -0.07200
Co59       Co  0.17892939  0.84438166  0.85586103     0.74180
N60         N  0.14060017  0.87784253  0.84643230    -0.26380
Co61       Co  0.13852169  0.87983679  0.88397212     0.74070
C62         C  0.14034321  0.95431781  0.87995086     0.42240
N63         N  0.21282275  0.91981043  0.89467176     0.00640
N64         N  0.14348576  0.91706358  0.88308633     0.00750
N65         N  0.14865787  0.80783147  0.87318454    -0.47220
H66         H  0.20426098  0.85073525  0.80251516     0.06510
N67         N  0.15668130  0.86440153  0.83700409     0.01040
N68         N  0.13992988  0.88196462  0.92152528     0.00780
C69         C  0.13597197  0.88052008  0.95890997     0.42380
N70         N  0.22704355  0.90493739  0.88485426    -0.25830
C71         C  0.20386924  0.80153059  0.87782743    -0.06750
N72         N  0.24094688  0.87501601  0.83900091    -0.46940
N73         N  0.12648915  0.87328370  0.93839283    -0.47160
C74         C  0.22305743  0.79864228  0.89401420     0.42150
N75         N  0.15148638  0.83041115  0.87265659     0.01020
N76         N  0.22064228  0.87196560  0.92224418    -0.25850
N77         N  0.20707865  0.85829731  0.83908937    -0.26350
N78         N  0.20726640  0.88722706  0.93253638     0.00660
H79         H  0.24880297  0.85059663  0.93394210     0.06550
H80         H  0.16793337  0.90263242  0.96476158     0.06590
N81         N  0.13582440  0.84235474  0.88443124    -0.26400
N82         N  0.16165862  0.92597228  0.89370559    -0.26010
N83         N  0.21627394  0.83477455  0.88907620     0.01030
C84         C  0.13998575  0.87866181  0.80697425     0.42420
C85         C  0.24518221  0.91621441  0.87627780    -0.07260
N86         N  0.15730361  0.89373215  0.93049594    -0.26010
H87         H  0.17318892  0.96058787  0.90079169     0.06570
N88         N  0.15680517  0.86441846  0.81418890    -0.47230
H89         H  0.25977650  0.90808846  0.86777264     0.06560
C90         C  0.22911376  0.87394456  0.95941344     0.42260
C91         C  0.21363231  0.85840443  0.81673247    -0.06760
Co92       Co  0.22193978  0.86972059  0.88691747     0.73820
N93         N  0.22091305  0.94124771  0.89435369    -0.46950
C94         C  0.12997269  0.80341864  0.88591633     0.42530
N95         N  0.22955694  0.82005701  0.90031526    -0.46940
Co96       Co  0.18464969  0.90707326  0.91282007     0.73890
C97         C  0.15571537  0.89436993  0.95333001    -0.07270
C98         C  0.12892734  0.88779495  0.82853206    -0.06830
N99         N  0.20100507  0.82452995  0.87588738    -0.26360
N100        N  0.13000036  0.93383349  0.87437572    -0.47120
H101        H  0.10632355  0.83032225  0.90461110     0.06530
C102        C  0.23454606  0.86218297  0.93783213    -0.07240
Cl103      Cl  0.18055749  0.87547048  0.88480909    -0.50240
C104        C  0.24140153  0.94026530  0.88297794     0.42290
H105        H  0.19461035  0.78853546  0.86813315     0.06500
N106        N  0.21223828  0.88955304  0.95478640    -0.46950
C107        C  0.43979236  0.74349668  0.88437174     0.42140
N108        N  0.40486391  0.73212346  0.88745455     0.01030
C109        C  0.36655177  0.62925701  0.93507819    -0.06850
H110        H  0.42552286  0.62101297  0.86031095     0.06520
C111        C  0.35758162  0.66714389  0.81255998    -0.07200
Co112      Co  0.40105154  0.68792961  0.91335686     0.74180
N113        N  0.40944131  0.64823502  0.88093806    -0.26380
Co114      Co  0.37198854  0.64571528  0.88096095     0.74070
C115        C  0.37149120  0.64748429  0.80601952     0.42240
N116        N  0.35727951  0.71774683  0.84009493     0.00640
N117        N  0.37037085  0.64991508  0.84359805     0.00750
N118        N  0.38607376  0.65840443  0.95166297    -0.47220
H119        H  0.45347352  0.71208180  0.90469313     0.06510
N120        N  0.41897901  0.66488462  0.89334498     0.01040
N121        N  0.33417614  0.64583070  0.88111093     0.00780
C122        C  0.29718166  0.63929625  0.88210122     0.42380
N123        N  0.36842776  0.73308041  0.85258158    -0.25830
C124        C  0.38222235  0.71450592  0.95664366    -0.06750
N125        N  0.41768887  0.74952144  0.88000340    -0.46940
N126        N  0.31834905  0.63066950  0.88881204    -0.47160
C127        C  0.36759028  0.73511978  0.96008958     0.42150
N128        N  0.38505168  0.66087698  0.92909834     0.01020
N129        N  0.33373673  0.72823279  0.88940307    -0.25850
N130        N  0.41713686  0.71555499  0.89722544    -0.26350
N131        N  0.32247629  0.71332807  0.87657149     0.00660
H132        H  0.32264561  0.75456199  0.91330344     0.06550
H133        H  0.28877041  0.67243952  0.86250546     0.06590
N134        N  0.37379418  0.64420707  0.91832443    -0.26400
N135        N  0.35797628  0.66743969  0.83553183    -0.26010
N136        N  0.37021421  0.72756839  0.92375367     0.01030
C137        C  0.44889983  0.64757496  0.87935589     0.42420
C138        C  0.37870322  0.74819295  0.83837486    -0.07260
N139        N  0.32389184  0.66346441  0.87066751    -0.26010
H140        H  0.34802696  0.67908988  0.80170099     0.06570
N141        N  0.44171653  0.66485758  0.89296003    -0.47230
H142        H  0.38899068  0.76284877  0.84363774     0.06560
C143        C  0.29592598  0.73195317  0.89464348     0.42260
C144        C  0.43949065  0.72136973  0.89643875    -0.06760
Co145      Co  0.36918978  0.73077474  0.88824217     0.73820
N146        N  0.35905730  0.72156013  0.81759181    -0.46950
C147        C  0.37493618  0.63907661  0.95749063     0.42530
N148        N  0.36105887  0.74214342  0.93877982    -0.46940
Co149      Co  0.34027265  0.69053909  0.85554973     0.73890
C150        C  0.30114152  0.66072508  0.87035993    -0.07270
C151        C  0.42729121  0.63604303  0.87131239    -0.06830
N152        N  0.38270723  0.71130294  0.93363402    -0.26360
N153        N  0.37908420  0.63727774  0.82613532    -0.47120
H154        H  0.35710789  0.61348432  0.93188477     0.06530
C155        C  0.31853242  0.74038844  0.90182104    -0.07240
Cl156      Cl  0.37068070  0.68853611  0.88450372    -0.50240
C157        C  0.37275043  0.74018071  0.81525070     0.42290
H158        H  0.39175437  0.70411562  0.96894393     0.06500
N159        N  0.29977109  0.71531430  0.87871863    -0.46950
C160        C  0.30965753  0.01268179  0.88659835     0.42140
N161        N  0.34403020  0.02568717  0.89054892     0.01030
C162        C  0.37727275  0.13079039  0.93584059    -0.06850
H163        H  0.32140025  0.13658380  0.86002334     0.06520
C164        C  0.38942714  0.08878273  0.81364719    -0.07200
Co165      Co  0.34542637  0.07076603  0.91448892     0.74180
N166        N  0.33698102  0.10930530  0.88092119    -0.26380
Co167      Co  0.37429442  0.11252899  0.88136925     0.74070
C168        C  0.37542826  0.10819744  0.80629124     0.42240
N169        N  0.39159035  0.03889229  0.84306394     0.00640
N170        N  0.37653538  0.10710294  0.84405899     0.00750
N171        N  0.35765481  0.10151690  0.95206773    -0.47220
H172        H  0.29395135  0.04497194  0.90449702     0.06510
N173        N  0.32724077  0.09281739  0.89356106     0.01040
N174        N  0.41204733  0.11306809  0.88179542     0.00780
C175        C  0.44892663  0.12008680  0.88302370     0.42380
N176        N  0.38119446  0.02363427  0.85639172    -0.25830
C177        C  0.36437921  0.04705151  0.95903134    -0.06750
N178        N  0.33220859  0.00777825  0.88301204    -0.46940
N179        N  0.42756061  0.12845130  0.88953721    -0.47160
C180        C  0.37995895  0.02770840  0.96385437     0.42150
N181        N  0.36003334  0.09862712  0.92967677     0.01020
N182        N  0.41500012  0.03133653  0.89295812    -0.25850
N183        N  0.33073100  0.04210282  0.89914170    -0.26350
N184        N  0.42586138  0.04591803  0.87930843     0.00660
H185        H  0.42675887  0.00477406  0.91626658     0.06550
H186        H  0.45805261  0.08684984  0.86401665     0.06590
N187        N  0.37141836  0.11531908  0.91894240    -0.26400
N188        N  0.38901964  0.08935209  0.83662895    -0.26010
N189        N  0.37786380  0.03298517  0.92715378     0.01030
C190        C  0.29781458  0.11077181  0.87985938     0.42420
C191        C  0.37314119  0.00648314  0.84320451    -0.07260
N192        N  0.42272553  0.09551537  0.87160750    -0.26010
H193        H  0.39941233  0.07659040  0.80348363     0.06570
N194        N  0.30444369  0.09323184  0.89347019    -0.47230
H195        H  0.36421406  0.99126213  0.84943032     0.06560
C196        C  0.45301382  0.02702557  0.89626515     0.42260
C197        C  0.30858652  0.03550148  0.89757455    -0.06760
Co198      Co  0.37959639  0.02798254  0.89185878     0.73820
N199        N  0.39146033  0.03303210  0.82092693    -0.46950
C200        C  0.36762823  0.12127857  0.95808004     0.42530
N201        N  0.38724309  0.01961112  0.94316890    -0.46940
Co202      Co  0.40734357  0.06746974  0.85745379     0.73890
C203        C  0.44540211  0.09859685  0.87139491    -0.07270
C204        C  0.31942217  0.12153964  0.87103818    -0.06830
N205        N  0.36426271  0.04902824  0.93591106    -0.26360
N206        N  0.36794994  0.11912805  0.82610510    -0.47120
H207        H  0.38640621  0.14686123  0.93301924     0.06530
C208        C  0.43058749  0.01913208  0.90482891    -0.07240
Cl209      Cl  0.37661624  0.06989435  0.88623237    -0.50240
C210        C  0.37992797  0.01283903  0.81969975     0.42290
H211        H  0.35375802  0.05692828  0.97091739     0.06500
N212        N  0.44861027  0.04356922  0.88030884    -0.46950
C213        C  0.37401181  0.81015903  0.02399359     0.42140
N214        N  0.37827339  0.84587291  0.03285213     0.01030
C215        C  0.42585862  0.88579736  0.13521582    -0.06850
H216        H  0.35212501  0.82768532  0.14382168     0.06520
C217        C  0.30185225  0.89080294  0.09809313    -0.07200
Co218      Co  0.40453576  0.85177040  0.07642457     0.74180
N219        N  0.37291225  0.84314807  0.11661429    -0.26380
Co220      Co  0.37155297  0.88050614  0.11837592     0.74070
C221        C  0.29671980  0.87772004  0.11859070     0.42240
N222        N  0.32861054  0.89126584  0.04658585     0.00640
N223        N  0.33399817  0.88046734  0.11501353     0.00750
N224        N  0.44255804  0.86684925  0.10561941    -0.47220
H225        H  0.39432275  0.79810194  0.05618460     0.06510
N226        N  0.38589840  0.83344653  0.10035485     0.01040
N227        N  0.37013836  0.91829334  0.11685182     0.00780
C228        C  0.37094751  0.95585325  0.12051131     0.42380
N229        N  0.34158427  0.88101894  0.03084769    -0.25830
C230        C  0.44617797  0.87261204  0.04955277    -0.06750
N231        N  0.36935794  0.83203000  0.01706593    -0.46940
N232        N  0.37868136  0.93535279  0.13010419    -0.47160
C233        C  0.44893364  0.88715859  0.02913575     0.42150
N234        N  0.42010047  0.86867685  0.10283186     0.01020
N235        N  0.37610854  0.91739650  0.03435214    -0.25850
N236        N  0.38865437  0.83445425  0.04961999    -0.26350
N237        N  0.36293605  0.92809393  0.04958696     0.00660
H238        H  0.39794576  0.92966335  0.00665491     0.06550
H239        H  0.34768342  0.96107552  0.08912750     0.06590
N240        N  0.40916043  0.87958782  0.11976626    -0.26400
N241        N  0.32482113  0.89154280  0.09717457    -0.26010
N242        N  0.41282139  0.88248601  0.03606808     0.01030
C243        C  0.37273433  0.80382829  0.11851783     0.42420
C244        C  0.32787577  0.87203494  0.01462049    -0.07260
N245        N  0.35804025  0.92715729  0.09958789    -0.26010
H246        H  0.29011927  0.89910371  0.08606741     0.06570
N247        N  0.38636587  0.81064391  0.10108392    -0.47230
H248        H  0.33356374  0.86328563  0.99904314     0.06560
C249        C  0.37865683  0.95546425  0.03019331     0.42260
C250        C  0.38709658  0.81170949  0.04548966    -0.06760
Co251      Co  0.37725588  0.88170928  0.03297946     0.73820
N252        N  0.30628087  0.89012762  0.04195138    -0.46950
C253        C  0.44825784  0.87681041  0.12553549     0.42530
N254        N  0.42746561  0.89217116  0.02142886    -0.46940
Co255      Co  0.34340097  0.90951324  0.07327299     0.73890
C256        C  0.35694319  0.94993188  0.10102610    -0.07270
C257        C  0.36345355  0.82554452  0.12904447    -0.06830
N258        N  0.42329528  0.87078052  0.05256063    -0.26360
N259        N  0.31736797  0.87150767  0.12851852    -0.47120
H260        H  0.42274781  0.89427416  0.15163423     0.06530
C261        C  0.38668755  0.93323648  0.02122943    -0.07240
Cl262      Cl  0.37417349  0.88085562  0.07546989    -0.50240
C263        C  0.30451147  0.87771089  0.02235759     0.42290
H264        H  0.45923760  0.86365007  0.05942614     0.06500
N265        N  0.36343871  0.95089076  0.04728134    -0.46950
C266        C  0.51465568  0.88178285  0.81539538     0.42140
N267        N  0.52456285  0.88524477  0.85096441     0.01030
C268        C  0.62617681  0.93065480  0.89198293    -0.06850
H269        H  0.63374380  0.85565470  0.83182501     0.06520
C270        C  0.58730289  0.80739663  0.89685133    -0.07200
Co271      Co  0.56827896  0.91036043  0.85624140     0.74180
N272        N  0.60746744  0.87748234  0.84768320    -0.26380
Co273      Co  0.60912451  0.87642554  0.88531881     0.74070
C274        C  0.60770963  0.80166395  0.88374081     0.42240
N275        N  0.53566790  0.83566027  0.89705391     0.00640
N276        N  0.60451869  0.83906387  0.88566618     0.00750
N277        N  0.59755356  0.94771835  0.87196947    -0.47220
H278        H  0.54703802  0.90192524  0.80324616     0.06510
N279        N  0.59137705  0.89069106  0.83806843     0.01040
N280        N  0.60757754  0.87532688  0.92311465     0.00780
C281        C  0.61195626  0.87650268  0.96053167     0.42380
N282        N  0.52089900  0.84936080  0.88635854    -0.25830
C283        C  0.54216341  0.95330137  0.87633680    -0.06750
N284        N  0.50827186  0.87704098  0.83742754    -0.46940
N285        N  0.62138808  0.88361666  0.93980476    -0.47160
C286        C  0.52192340  0.95634580  0.89120085     0.42150
N287        N  0.59492083  0.92520949  0.87298222     0.01020
N288        N  0.52563903  0.88420879  0.92229928    -0.25850
N289        N  0.54125086  0.89521333  0.83925488    -0.26350
N290        N  0.53991806  0.87040110  0.93342827     0.00660
H291        H  0.49793725  0.90659406  0.93346247     0.06550
H292        H  0.57930509  0.85563994  0.96695116     0.06590
N293        N  0.61125825  0.91403800  0.88446242    -0.26400
N294        N  0.58661604  0.83043447  0.89708235    -0.26010
N295        N  0.52892709  0.92014522  0.88730943     0.01030
C296        C  0.60857467  0.87666641  0.80805757     0.42420
C297        C  0.50370374  0.83665207  0.87781569    -0.07260
N298        N  0.58992407  0.86413793  0.93241768    -0.26010
H299        H  0.57516869  0.79604148  0.90546241     0.06570
N300        N  0.59160245  0.89070616  0.81527774    -0.47230
H301        H  0.48843417  0.84328172  0.86922488     0.06560
C302        C  0.51940389  0.88620581  0.96009220     0.42260
C303        C  0.53657304  0.89415517  0.81660163    -0.06760
Co304      Co  0.52466457  0.88482694  0.88671448     0.73820
N305        N  0.52913756  0.81371034  0.89697315    -0.46950
C306        C  0.61668266  0.95337449  0.88334414     0.42530
N307        N  0.51469605  0.93502295  0.89719713    -0.46940
Co308      Co  0.56307249  0.84988104  0.91503178     0.73890
C309        C  0.59155511  0.86364700  0.95526149    -0.07270
C310        C  0.61941985  0.86759543  0.82983395    -0.06830
N311        N  0.54511597  0.93026078  0.87499663    -0.26360
N312        N  0.61770148  0.82203561  0.87692035    -0.47120
H313        H  0.64183871  0.92719767  0.90157644     0.06530
C314        C  0.51223716  0.89517764  0.93762005    -0.07240
Cl315      Cl  0.56672084  0.88022104  0.88582395    -0.50240
C316        C  0.50944283  0.81306147  0.88453144     0.42290
H317        H  0.55204492  0.96616995  0.86699246     0.06500
N318        N  0.53637173  0.87054760  0.95610220    -0.46950
C319        C  0.87511473  0.30213580  0.65005587     0.42140
N320        N  0.86095033  0.33159539  0.66777039     0.01030
C321        C  0.88607846  0.44901681  0.66578775    -0.06850
H322        H  0.95345055  0.39984270  0.68566487     0.06520
C323        C  0.91331082  0.37216723  0.75551217    -0.07200
Co324      Co  0.87500901  0.37880213  0.64980748     0.74180
N325        N  0.92000687  0.39099911  0.67296710    -0.26380
Co326      Co  0.90017884  0.40929142  0.69578071     0.74070
C327        C  0.93671788  0.37983670  0.75070348     0.42240
N328        N  0.86564418  0.34535760  0.73456721     0.00640
N329        N  0.91457895  0.39161033  0.72355285     0.00750
N330        N  0.86905120  0.43207269  0.63495152    -0.47220
H331        H  0.89513581  0.32595492  0.62449844     0.06510
N332        N  0.91216499  0.37924843  0.65502057     0.01040
N333        N  0.87958910  0.42777311  0.71880300     0.00780
C334        C  0.86524786  0.45389256  0.74107959     0.42380
N335        N  0.85588861  0.33306338  0.71818222    -0.25830
C336        C  0.82168287  0.38747910  0.63261868    -0.06750
N337        N  0.86127889  0.30877728  0.66742460    -0.46940
N338        N  0.88020580  0.45023725  0.72336564    -0.47160
C339        C  0.79890380  0.37906070  0.64112490     0.42150
N340        N  0.87592774  0.41620574  0.65044573     0.01020
N341        N  0.82044893  0.36856109  0.71375072    -0.25850
N342        N  0.87392305  0.34140773  0.65160127    -0.26350
N343        N  0.83081427  0.38163927  0.72906547     0.00660
H344        H  0.78468880  0.35896754  0.70933617     0.06550
H345        H  0.84583365  0.42668123  0.76266068     0.06590
N346        N  0.88579779  0.42621817  0.66843712    -0.26400
N347        N  0.90090159  0.38059567  0.73801203    -0.26010
N348        N  0.82587395  0.36653080  0.66317506     0.01030
C349        C  0.94967297  0.37662425  0.65384994     0.42420
C350        C  0.85684433  0.31059476  0.72410614    -0.07260
N351        N  0.86613675  0.41644694  0.73318496    -0.26010
H352        H  0.90644932  0.36333903  0.77056352     0.06570
N353        N  0.92975405  0.37039172  0.64264173    -0.47230
H354        H  0.84928525  0.29639126  0.71461835     0.06560
C355        C  0.79499454  0.38465327  0.73825342     0.42260
C356        C  0.88362595  0.32387076  0.63915152    -0.06760
Co357      Co  0.84063518  0.34971079  0.69052930     0.73820
N358        N  0.87333247  0.33259789  0.75184042    -0.46950
C359        C  0.87509406  0.45315475  0.64389635     0.42530
N360        N  0.80332304  0.36655589  0.66005879    -0.46940
Co361      Co  0.86575276  0.38092990  0.73388563     0.73890
C362        C  0.85618375  0.43138290  0.74775293    -0.07270
C363        C  0.94290935  0.39053103  0.67341132    -0.06830
N364        N  0.83761435  0.37836945  0.64740968    -0.26360
N365        N  0.93632326  0.39197030  0.73067956    -0.47120
H366        H  0.89349124  0.46124315  0.67781021     0.06530
C367        C  0.79756496  0.36922374  0.71810811    -0.07240
Cl368      Cl  0.87044855  0.37968484  0.69229651    -0.50240
C369        C  0.86850940  0.31054758  0.74644342     0.42290
H370        H  0.82545631  0.39819093  0.61769934     0.06500
N371        N  0.81643585  0.39166979  0.74353309    -0.46950
C372        C  0.94190771  0.24096577  0.88676208     0.42140
N373        N  0.90681252  0.22996735  0.89030764     0.01030
C374        C  0.86418040  0.12782119  0.93478850    -0.06850
H375        H  0.92578288  0.11885380  0.86176648     0.06520
C376        C  0.86224961  0.16638019  0.81240361    -0.07200
Co377      Co  0.90185041  0.18556139  0.91541060     0.74180
N378        N  0.91022188  0.14602169  0.88284114    -0.26380
Co379      Co  0.87269975  0.14436395  0.88144406     0.74070
C380        C  0.87489995  0.14571981  0.80674956     0.42240
N381        N  0.86204425  0.21718215  0.84068891     0.00640
N382        N  0.87279842  0.14864539  0.84407958     0.00750
N383        N  0.88476910  0.15542554  0.95294811    -0.47220
H384        H  0.95544516  0.20852610  0.90603763     0.06510
N385        N  0.92003363  0.16221117  0.89573481     0.01040
N386        N  0.83489927  0.14564848  0.87999840     0.00780
C387        C  0.79738560  0.14142408  0.87996004     0.42380
N388        N  0.87212296  0.23239801  0.85414625    -0.25830
C389        C  0.88174327  0.21202078  0.95816063    -0.06750
N390        N  0.91981582  0.24692578  0.88235123    -0.46940
N391        N  0.81787465  0.13163798  0.88744237    -0.47160
C392        C  0.86716581  0.23260835  0.96131981     0.42150
N393        N  0.88477870  0.15844588  0.93034600     0.01020
N394        N  0.83570065  0.22756897  0.88890689    -0.25850
N395        N  0.91886430  0.21322081  0.90003659    -0.26350
N396        N  0.82516540  0.21299454  0.87511268     0.00660
H397        H  0.82328010  0.25431258  0.91181183     0.06550
H398        H  0.79232595  0.17402871  0.85813980     0.06590
N399        N  0.87303973  0.14260827  0.91876360    -0.26400
N400        N  0.86183524  0.16684020  0.83541130    -0.26010
N401        N  0.87066046  0.22537264  0.92510713     0.01030
C402        C  0.94943530  0.14395332  0.88220631     0.42420
C403        C  0.88135230  0.24896123  0.84095535    -0.07260
N404        N  0.82605863  0.16344853  0.86864801    -0.26010
H405        H  0.85379750  0.17866221  0.80101401     0.06570
N406        N  0.94283715  0.16150378  0.89577433    -0.47230
H407        H  0.88996994  0.26432457  0.84716442     0.06560
C408        C  0.79767543  0.23194074  0.89131201     0.42260
C409        C  0.94138895  0.21864052  0.89885040    -0.06760
Co410      Co  0.87122559  0.22921415  0.88968935     0.73820
N411        N  0.86331894  0.22266231  0.81849888    -0.46950
C412        C  0.87224936  0.13662547  0.95756719     0.42530
N413        N  0.86131564  0.24003426  0.93998619    -0.46940
Co414      Co  0.84382612  0.19015807  0.85476826     0.73890
C415        C  0.80334765  0.16186628  0.86720686    -0.07270
C416        C  0.92778912  0.13346709  0.87327186    -0.06830
N417        N  0.88285930  0.20895533  0.93517922    -0.26360
N418        N  0.88119683  0.13522073  0.82708829    -0.47120
H419        H  0.85384121  0.11271869  0.93107928     0.06530
C420        C  0.81980163  0.24016332  0.90008496    -0.07240
Cl421      Cl  0.87249627  0.18688993  0.88531752    -0.50240
C422        C  0.87577095  0.24225726  0.81731381     0.42290
H423        H  0.89107623  0.20197245  0.97095342     0.06500
N424        N  0.80241831  0.21534728  0.87562903    -0.46950
C425        C  0.73378266  0.37076538  0.81558764     0.42140
N426        N  0.72321154  0.36711545  0.85087523     0.01030
C427        C  0.62072811  0.32581838  0.89384326    -0.06850
H428        H  0.61478924  0.40052212  0.83164737     0.06520
C429        C  0.66312408  0.44713899  0.89689276    -0.07200
Co430      Co  0.67849642  0.34377341  0.85602570     0.74180
N431        N  0.64055260  0.37805642  0.84768727    -0.26380
Co432      Co  0.63886692  0.37930737  0.88533921     0.74070
C433        C  0.64253630  0.45386599  0.88457773     0.42240
N434        N  0.71368677  0.41715228  0.89670659     0.00640
N435        N  0.64470777  0.41633705  0.88560623     0.00750
N436        N  0.64776947  0.30744259  0.87240058    -0.47220
H437        H  0.70096865  0.35255687  0.80234584     0.06510
N438        N  0.65638072  0.36448986  0.83804462     0.01040
N439        N  0.63996849  0.38082441  0.92297638     0.00780
C440        C  0.63393218  0.38261134  0.96014836     0.42380
N441        N  0.72800197  0.40301535  0.88595246    -0.25830
C442        C  0.70318205  0.29991491  0.87618813    -0.06750
N443        N  0.73990689  0.37509332  0.83761741    -0.46940
N444        N  0.62450330  0.37551663  0.93952029    -0.47160
C445        C  0.72307724  0.29610521  0.89131832     0.42150
N446        N  0.65112814  0.32992379  0.87285140     0.01020
N447        N  0.72206244  0.36848501  0.92201900    -0.25850
N448        N  0.70631465  0.35789162  0.83895512    -0.26350
N449        N  0.70827996  0.38278389  0.93315204     0.00660
H450        H  0.75065016  0.34717081  0.93265863     0.06550
H451        H  0.66877133  0.39991274  0.96638945     0.06590
N452        N  0.63564298  0.34179448  0.88496022    -0.26400
N453        N  0.66305687  0.42412339  0.89673271    -0.26010
N454        N  0.71715441  0.33257452  0.88734552     0.01030
C455        C  0.63992361  0.37925247  0.80819945     0.42420
C456        C  0.74568986  0.41517382  0.87745353    -0.07260
N457        N  0.65841429  0.39052019  0.93222767    -0.26010
H458        H  0.67568919  0.45780476  0.90564155     0.06570
N459        N  0.65648487  0.36474941  0.81526817    -0.47230
H460        H  0.76026332  0.40797193  0.86812776     0.06560
C461        C  0.73036313  0.36859221  0.95944360     0.42260
C462        C  0.71139428  0.35924366  0.81631044    -0.06760
Co463      Co  0.72291251  0.36765099  0.88648773     0.73820
N464        N  0.72101910  0.43883400  0.89680486    -0.46950
C465        C  0.62900424  0.30296443  0.88491587     0.42530
N466        N  0.73074715  0.31723554  0.89736704    -0.46940
Co467      Co  0.68577257  0.40379338  0.91470337     0.73890
C468        C  0.65619296  0.39220814  0.95496114    -0.07270
C469        C  0.62888555  0.38825748  0.82984282    -0.06830
N470        N  0.70085278  0.32302153  0.87486972    -0.26360
N471        N  0.63169807  0.43394257  0.87784039    -0.47120
H472        H  0.60583587  0.32960382  0.90459698     0.06530
C473        C  0.73617247  0.35826209  0.93712906    -0.07240
Cl474      Cl  0.68131209  0.37371806  0.88564195    -0.50240
C475        C  0.74113331  0.43889559  0.88488886     0.42290
H476        H  0.69310324  0.28740010  0.86668754     0.06500
N477        N  0.71305573  0.38390553  0.95553136    -0.46950
C478        C  0.00816656  0.38226738  0.81907331     0.42140
N479        N  0.02142954  0.38545790  0.85339765     0.01030
C480        C  0.12489135  0.43069185  0.88906375    -0.06850
H481        H  0.13180935  0.35713449  0.82839331     0.06520
C482        C  0.08518046  0.30831908  0.89622703    -0.07200
Co483      Co  0.06583481  0.41030503  0.85489522     0.74180
N484        N  0.10466689  0.37727049  0.84521673    -0.26380
Co485      Co  0.10808701  0.37656948  0.88270037     0.74070
C486        C  0.10380788  0.30141849  0.88118681     0.42240
N487        N  0.03543544  0.33671486  0.89974298     0.00640
N488        N  0.10313243  0.33907156  0.88383961     0.00750
N489        N  0.09659581  0.44795912  0.86844410    -0.47220
H490        H  0.03933933  0.40144181  0.80342301     0.06510
N491        N  0.08787373  0.38998235  0.83611299     0.01040
N492        N  0.10895652  0.37611693  0.92048071     0.00780
C493        C  0.11603435  0.37769260  0.95740335     0.42380
N494        N  0.02012645  0.35025846  0.88967912    -0.25830
C495        C  0.03963472  0.45392753  0.87513278    -0.06750
N496        N  0.00345881  0.37804433  0.84155255    -0.46940
N497        N  0.12393457  0.38458773  0.93600033    -0.47160
C498        C  0.02066529  0.45667870  0.89191932     0.42150
N499        N  0.09374109  0.42540718  0.86969370     0.01020
N500        N  0.02772194  0.38594458  0.92442693    -0.25850
N501        N  0.03740857  0.39479135  0.84014394    -0.26350
N502        N  0.04230945  0.37212102  0.93505692     0.00660
H503        H  0.00090940  0.40880689  0.93649058     0.06550
H504        H  0.08360298  0.35756927  0.96659314     0.06590
N505        N  0.11005067  0.41418093  0.88129896    -0.26400
N506        N  0.08578721  0.33124074  0.89654876    -0.26010
N507        N  0.02926028  0.42072921  0.88870199     0.01030
C508        C  0.10490278  0.37683121  0.80566186     0.42420
C509        C  0.00276441  0.33735974  0.88177246    -0.07260
N510        N  0.09191494  0.36526534  0.93117809    -0.26010
H511        H  0.07334462  0.29781725  0.90621612     0.06570
N512        N  0.08765785  0.39027635  0.81333462    -0.47230
H513        H  0.98736529  0.34395829  0.87340560     0.06560
C514        C  0.02308532  0.38835452  0.96245290     0.42260
C515        C  0.03054311  0.39373310  0.81803078    -0.06760
Co516      Co  0.02431774  0.38567932  0.88904129     0.73820
N517        N  0.02937990  0.31463004  0.89951527    -0.46950
C518        C  0.11578856  0.45318279  0.87993724     0.42530
N519        N  0.01580245  0.43536244  0.89969879    -0.46940
Co520      Co  0.06397834  0.35110862  0.91570205     0.73890
C521        C  0.09512900  0.36510464  0.95388941    -0.07270
C522        C  0.11664448  0.36809555  0.82701119    -0.06830
N523        N  0.04370643  0.43091177  0.87444261    -0.26360
N524        N  0.11482634  0.32133921  0.87426723    -0.47120
H525        H  0.14033031  0.42747039  0.89912452     0.06530
C526        C  0.01537042  0.39742424  0.94017612    -0.07240
Cl527      Cl  0.06576540  0.38082490  0.88550621    -0.50240
C528        C  0.00899647  0.31368683  0.88822628     0.42290
H529        H  0.04797123  0.46682604  0.86440523     0.06500
N530        N  0.03974409  0.37250898  0.95785309    -0.46950
C531        C  0.87812019  0.30823427  0.02363740     0.42140
N532        N  0.88048962  0.34408223  0.03254289     0.01030
C533        C  0.92722031  0.38471858  0.13486020    -0.06850
H534        H  0.85221588  0.32621062  0.14313937     0.06520
C535        C  0.80355534  0.39002982  0.09608284    -0.07200
Co536      Co  0.90577792  0.35010230  0.07661217     0.74180
N537        N  0.87358489  0.34163919  0.11638895    -0.26380
Co538      Co  0.87258762  0.37906888  0.11801705     0.74070
C539        C  0.79773901  0.37621291  0.11592724     0.42240
N540        N  0.83088968  0.39074484  0.04519136     0.00640
N541        N  0.83511678  0.37946937  0.11386625     0.00750
N542        N  0.94357071  0.36536927  0.10536816    -0.47220
H543        H  0.89677438  0.29691959  0.05693820     0.06510
N544        N  0.88653871  0.33191481  0.10015816     0.01040
N545        N  0.87164055  0.41673637  0.11659425     0.00780
C546        C  0.87354701  0.45406385  0.12094265     0.42380
N547        N  0.84408748  0.37976099  0.03013753    -0.25830
C548        C  0.94813134  0.37027269  0.05011254    -0.06750
N549        N  0.87274996  0.32988271  0.01634076    -0.46940
N550        N  0.88031962  0.43324292  0.13037966    -0.47160
C551        C  0.95103174  0.38479157  0.02964572     0.42150
N552        N  0.92107894  0.36685029  0.10301563     0.01020
N553        N  0.87863875  0.41610132  0.03363255    -0.25850
N554        N  0.89047011  0.33292717  0.04972438    -0.26350
N555        N  0.86552951  0.42702946  0.04878194     0.00660
H556        H  0.90034654  0.42801092  0.00562547     0.06550
H557        H  0.85189571  0.46087825  0.08877243     0.06590
N558        N  0.91026379  0.37799174  0.11985069    -0.26400
N559        N  0.82649959  0.39088392  0.09594855    -0.26010
N560        N  0.91493018  0.38081319  0.03659746     0.01030
C561        C  0.87279552  0.30213543  0.11787979     0.42420
C562        C  0.83080788  0.37049397  0.01378890    -0.07260
N563        N  0.86030800  0.42618491  0.09907034    -0.26010
H564        H  0.79224041  0.39845966  0.08374753     0.06570
N565        N  0.88657921  0.30911648  0.10061260    -0.47230
H566        H  0.83694966  0.36070226  0.99903658     0.06560
C567        C  0.88105378  0.45420962  0.02889754     0.42260
C568        C  0.88975120  0.31019156  0.04574780    -0.06760
Co569      Co  0.87957169  0.38016833  0.03272085     0.73820
N570        N  0.80871368  0.39016433  0.03966230    -0.46950
C571        C  0.94959072  0.37579363  0.12490836     0.42530
N572        N  0.92969681  0.39054364  0.02220177    -0.46940
Co573      Co  0.84559167  0.40878306  0.07233713     0.73890
C574        C  0.86009477  0.44904654  0.10079428    -0.07270
C575        C  0.86388286  0.32399372  0.12864037    -0.06830
N576        N  0.92517005  0.36881815  0.05303237    -0.26360
N577        N  0.81806935  0.37015529  0.12660574    -0.47120
H578        H  0.92437106  0.39381566  0.15098950     0.06530
C579        C  0.88915108  0.43181996  0.02018805    -0.07240
Cl580      Cl  0.87583112  0.37952447  0.07510353    -0.50240
C581        C  0.80744195  0.37758325  0.02007941     0.42290
H582        H  0.96106592  0.36114161  0.06013477     0.06500
N583        N  0.86603421  0.44979650  0.04623251    -0.46950
C584        C  0.80593051  0.51399809  0.88696910     0.42140
N585        N  0.84042358  0.52695532  0.88942009     0.01030
C586        C  0.88036362  0.62911268  0.93491011    -0.06850
H587        H  0.82053596  0.63804385  0.86004103     0.06520
C588        C  0.88691561  0.59049176  0.81248590    -0.07200
Co589      Co  0.84333903  0.57165142  0.91425039     0.74180
N590        N  0.83580237  0.61068931  0.88112091    -0.26380
Co591      Co  0.87327582  0.61281156  0.88101472     0.74070
C592        C  0.87317110  0.61035507  0.80622708     0.42240
N593        N  0.88827260  0.53972166  0.84159624     0.00640
N594        N  0.87473098  0.60801214  0.84370013     0.00750
N595        N  0.85849904  0.60190462  0.95225911    -0.47220
H596        H  0.79109559  0.54605926  0.90593581     0.06510
N597        N  0.82580184  0.59417161  0.89349918     0.01040
N598        N  0.91100816  0.61252040  0.88076988     0.00780
C599        C  0.94799480  0.61899180  0.88120995     0.42380
N600        N  0.87722687  0.52464946  0.85464735    -0.25830
C601        C  0.86196973  0.54682771  0.95837755    -0.06750
N602        N  0.82827330  0.50903600  0.88247162    -0.46940
N603        N  0.92691436  0.62758818  0.88829346    -0.47160
C604        C  0.87680901  0.52671189  0.96267651     0.42150
N605        N  0.85908847  0.59919585  0.92962035     0.01020
N606        N  0.91130444  0.53135293  0.89155033    -0.25850
N607        N  0.82760065  0.54339555  0.89869898    -0.26350
N608        N  0.92287531  0.54505193  0.87756947     0.00660
H609        H  0.92136616  0.50692629  0.91750864     0.06550
H610        H  0.95616567  0.58582270  0.86158575     0.06590
N611        N  0.87154956  0.61484581  0.91844370    -0.26400
N612        N  0.88689441  0.59029711  0.83556095    -0.26010
N613        N  0.87438573  0.53253167  0.92607148     0.01030
C614        C  0.79662918  0.61182506  0.87898620     0.42420
C615        C  0.86849969  0.50812292  0.84098278    -0.07260
N616        N  0.92117513  0.59491495  0.87019403    -0.26010
H617        H  0.89600360  0.57837462  0.80140993     0.06570
N618        N  0.80304779  0.59434466  0.89271902    -0.47230
H619        H  0.85888063  0.49312045  0.84667220     0.06560
C620        C  0.94900425  0.52618557  0.89613795     0.42260
C621        C  0.80537068  0.53680544  0.89804633    -0.06760
Co622      Co  0.87593192  0.52845469  0.89043208     0.73820
N623        N  0.88814945  0.53431870  0.81937644    -0.46950
C624        C  0.87130429  0.62029476  0.95747912     0.42530
N625        N  0.88365295  0.51868392  0.94180894    -0.46940
Co626      Co  0.90487842  0.56748735  0.85602855     0.73890
C627        C  0.94388334  0.59769654  0.86937904    -0.07270
C628        C  0.81837746  0.62313711  0.87120615    -0.06830
N629        N  0.86155687  0.54898858  0.93525954    -0.26360
N630        N  0.86587178  0.62064782  0.82633775    -0.47120
H631        H  0.89153483  0.64374551  0.93166572     0.06530
C632        C  0.92613515  0.51976247  0.90472220    -0.07240
Cl633      Cl  0.87429729  0.57029499  0.88538172    -0.50240
C634        C  0.87575432  0.51478133  0.81772919     0.42290
H635        H  0.85257468  0.55766923  0.97043832     0.06500
N636        N  0.94557860  0.54216083  0.87929377    -0.46950
C637        C  0.80273682  0.87903187  0.24559257     0.42140
N638        N  0.82687375  0.86506371  0.22116169     0.01030
C639        C  0.94365255  0.88720937  0.22228941    -0.06850
H640        H  0.89183345  0.95976550  0.21248733     0.06520
C641        C  0.86370477  0.93173395  0.13771328    -0.07200
Co642      Co  0.87465039  0.87637964  0.23459910     0.74180
N643        N  0.88544184  0.92351244  0.21827545    -0.26380
Co644      Co  0.90228338  0.90596857  0.19227128     0.74070
C645        C  0.87195415  0.95332100  0.14905630     0.42240
N646        N  0.83314161  0.87598192  0.15300958     0.00640
N647        N  0.88374372  0.92367928  0.16801898     0.00750
N648        N  0.92328758  0.86679382  0.24858763    -0.47220
H649        H  0.83160462  0.89673050  0.26616170     0.06510
N650        N  0.87480886  0.91202516  0.23473415     0.01040
N651        N  0.91864049  0.88870028  0.16643701     0.00780
C652        C  0.94759065  0.87927012  0.14510236     0.42380
N653        N  0.82455047  0.86421663  0.17069489    -0.25830
C654        C  0.88491687  0.82588904  0.24858251    -0.06750
N655        N  0.80463021  0.86533357  0.22671725    -0.46940
N656        N  0.94120237  0.88995993  0.16452183    -0.47160
C657        C  0.87751827  0.80319580  0.24068089     0.42150
N658        N  0.90978744  0.87582753  0.23269438     0.01020
N659        N  0.85873606  0.82936648  0.16854322    -0.25850
N660        N  0.83947013  0.87692190  0.23575489    -0.26350
N661        N  0.86981501  0.83904444  0.15094777     0.00660
H662        H  0.84915727  0.79460761  0.17756492     0.06550
H663        H  0.92291649  0.86189015  0.11837276     0.06590
N664        N  0.92102553  0.88785238  0.21705143    -0.26400
N665        N  0.87185026  0.91402945  0.15105694    -0.26010
N666        N  0.86252596  0.82917042  0.21898090     0.01030
C667        C  0.87143406  0.94751477  0.24466290     0.42420
C668        C  0.80171728  0.86405091  0.17007237    -0.07260
N669        N  0.90831546  0.87764132  0.14931167    -0.26010
H670        H  0.85357216  0.92984941  0.12211891     0.06570
N671        N  0.86630442  0.92565146  0.25101773    -0.47230
H672        H  0.79066761  0.85494918  0.18216019     0.06560
C673        C  0.86957098  0.80207689  0.14466006     0.42260
C674        C  0.82581983  0.88692386  0.25133525    -0.06760
Co675      Co  0.84303061  0.84677601  0.19482774     0.73820
N676        N  0.81597094  0.88455321  0.13988413    -0.46950
C677        C  0.94498327  0.87314227  0.24351160     0.42530
N678        N  0.86338429  0.80652583  0.22241730    -0.46940
Co679      Co  0.87073966  0.87665317  0.14963745     0.73890
C680        C  0.92553445  0.87074481  0.13463344    -0.07270
C681        C  0.88413758  0.94618656  0.22282102    -0.06830
N682        N  0.87461023  0.84078144  0.23422680    -0.26360
N683        N  0.88413126  0.94642789  0.16738541    -0.47120
H684        H  0.95707187  0.89673877  0.21337985     0.06530
C685        C  0.85769703  0.80657789  0.16595157    -0.07240
Cl686      Cl  0.87267322  0.87639111  0.19231109    -0.50240
C687        C  0.79564539  0.87748041  0.15006616     0.42290
H688        H  0.89515861  0.83048298  0.26351957     0.06500
N689        N  0.87719118  0.82283282  0.13602901    -0.46950
C690        C  0.93642053  0.74734631  0.38540093     0.42140
N691        N  0.90241509  0.73341757  0.38730731     0.01030
C692        C  0.86467476  0.63126217  0.43605972    -0.06850
H693        H  0.92443225  0.62135370  0.36277767     0.06520
C694        C  0.85794022  0.66726199  0.31296154    -0.07200
Co695      Co  0.89982452  0.68967325  0.41380577     0.74180
N696        N  0.90875937  0.64934267  0.38230158    -0.26380
Co697      Co  0.87142848  0.64634994  0.38178870     0.74070
C698        C  0.87259171  0.64822358  0.30654949     0.42240
N699        N  0.85634523  0.71757581  0.33961185     0.00640
N700        N  0.87044547  0.65005532  0.34414597     0.00750
N701        N  0.88415395  0.66062735  0.45263657    -0.47220
H702        H  0.95195336  0.71611401  0.40505597     0.06510
N703        N  0.91826448  0.66635260  0.39427968     0.01040
N704        N  0.83360570  0.64612733  0.38148854     0.00780
C705        C  0.79636925  0.64067753  0.38280562     0.42380
N706        N  0.86688928  0.73335118  0.35201796    -0.25830
C707        C  0.87998052  0.71705884  0.45637849    -0.06750
N708        N  0.91420387  0.75151293  0.38011724    -0.46940
N709        N  0.81735897  0.63170550  0.38984797    -0.47160
C710        C  0.86485336  0.73741208  0.45905866     0.42150
N711        N  0.88399158  0.66247334  0.42992973     0.01020
N712        N  0.83161323  0.72838765  0.38835758    -0.25850
N713        N  0.91541289  0.71755269  0.39731112    -0.26350
N714        N  0.82117623  0.71281312  0.37566905     0.00660
H715        H  0.81894154  0.75456014  0.41182712     0.06550
H716        H  0.78922177  0.67255016  0.36073317     0.06590
N717        N  0.87274413  0.64566950  0.41921649    -0.26400
N718        N  0.85803085  0.66744858  0.33586643    -0.26010
N719        N  0.86771765  0.72869267  0.42309702     0.01030
C720        C  0.94816178  0.64795543  0.38151070     0.42420
C721        C  0.87706559  0.74846281  0.33772092    -0.07260
N722        N  0.82372967  0.66337628  0.37016201    -0.26010
H723        H  0.84810112  0.67895649  0.30209645     0.06570
N724        N  0.94104408  0.66601539  0.39424101    -0.47230
H725        H  0.88696160  0.76343466  0.34285675     0.06560
C726        C  0.79367411  0.72994624  0.39368545     0.42260
C727        C  0.93747438  0.72470916  0.39681466    -0.06760
Co728      Co  0.86703092  0.73135986  0.38767138     0.73820
N729        N  0.85835207  0.72105277  0.31709214    -0.46950
C730        C  0.87247022  0.64158335  0.45826784     0.42530
N731        N  0.85826960  0.74360151  0.43757993    -0.46940
Co732      Co  0.83979346  0.69034394  0.35518576     0.73890
C733        C  0.80109726  0.66096285  0.36948147    -0.07270
C734        C  0.92650014  0.63665810  0.37330806    -0.06830
N735        N  0.88065080  0.71307310  0.43347743    -0.26360
N736        N  0.87965226  0.63764241  0.32671681    -0.47120
H737        H  0.85465048  0.61575850  0.43324202     0.06530
C738        C  0.81566851  0.74014604  0.40037042    -0.07240
Cl739      Cl  0.86968367  0.68898470  0.38461767    -0.50240
C740        C  0.87165871  0.73990407  0.31465618     0.42290
H741        H  0.88992867  0.70772770  0.46923208     0.06500
N742        N  0.79846046  0.71353488  0.37785750    -0.46950
C743        C  0.73588997  0.87218295  0.31818068     0.42140
N744        N  0.72411116  0.86925815  0.35303943     0.01030
C745        C  0.62042111  0.82362653  0.38975384    -0.06850
H746        H  0.61282852  0.89843859  0.33315227     0.06520
C747        C  0.66250759  0.94598028  0.39988462    -0.07200
Co748      Co  0.67973794  0.84535079  0.35681176     0.74180
N749        N  0.64063976  0.87833327  0.34875084    -0.26380
Co750      Co  0.63831228  0.87864026  0.38627187     0.74070
C751        C  0.64266999  0.95327712  0.38655214     0.42240
N752        N  0.71250195  0.91730362  0.40011161     0.00640
N753        N  0.64401799  0.91560756  0.38779426     0.00750
N754        N  0.64997316  0.80793679  0.37006985    -0.47220
H755        H  0.70341813  0.85427576  0.30396373     0.06510
N756        N  0.65738352  0.86604045  0.33894393     0.01040
N757        N  0.63869432  0.87970694  0.42406890     0.00780
C758        C  0.63132549  0.88361961  0.46091539     0.42380
N759        N  0.72704052  0.90383935  0.38888700    -0.25830
C760        C  0.70352660  0.80132402  0.37693671    -0.06750
N761        N  0.74153854  0.87654982  0.34031983    -0.46940
N762        N  0.62197332  0.87707602  0.44004358    -0.47160
C763        C  0.72279315  0.79702397  0.39253367     0.42150
N764        N  0.65254817  0.83029226  0.37259431     0.01020
N765        N  0.72225648  0.86824126  0.42407027    -0.25850
N766        N  0.70742856  0.86034064  0.34063898    -0.26350
N767        N  0.70786717  0.88160512  0.43555253     0.00660
H768        H  0.75206298  0.84831769  0.43407405     0.06550
H769        H  0.66777620  0.89667577  0.46809789     0.06590
N770        N  0.63570956  0.84083577  0.38406215    -0.26400
N771        N  0.66205904  0.92300803  0.39965394    -0.26010
N772        N  0.71829344  0.83349461  0.38824515     0.01030
C773        C  0.63943513  0.87952299  0.30935865     0.42420
C774        C  0.74371663  0.91668963  0.37967050    -0.07260
N775        N  0.65764493  0.88779033  0.43390974    -0.26010
H776        H  0.67494813  0.95612364  0.40935619     0.06570
N777        N  0.65720034  0.86633096  0.31614631    -0.47230
H778        H  0.75836742  0.91011184  0.36997121     0.06560
C779        C  0.73077603  0.86791154  0.46144794     0.42260
C780        C  0.71319336  0.86142374  0.31818116    -0.06760
Co781      Co  0.72317906  0.86857489  0.38855998     0.73820
N782        N  0.71880390  0.93933545  0.39990452    -0.46950
C783        C  0.63031840  0.80150044  0.37992800     0.42530
N784        N  0.73138161  0.81779864  0.39849246    -0.46940
Co785      Co  0.68494696  0.90250120  0.41742198     0.73890
C786        C  0.65498389  0.88960505  0.45656392    -0.07270
C787        C  0.62803562  0.88763245  0.33111957    -0.06830
N788        N  0.70195442  0.82439900  0.37549725    -0.26360
N789        N  0.63164850  0.93348988  0.37960798    -0.47120
H790        H  0.60412358  0.82618693  0.39865488     0.06530
C791        C  0.73700568  0.85845247  0.43887815    -0.07240
Cl792      Cl  0.68101491  0.87381611  0.38736328    -0.50240
C793        C  0.73832221  0.94023574  0.38703622     0.42290
H794        H  0.69322755  0.78905325  0.36744034     0.06500
N795        N  0.71276820  0.88251751  0.45792590    -0.46950
C796        C  0.01266047  0.88414553  0.31513662     0.42140
N797        N  0.02272968  0.88959604  0.35038883     0.01030
C798        C  0.12607782  0.93035690  0.39128640    -0.06850
H799        H  0.13285658  0.85651946  0.33069804     0.06520
C800        C  0.08288059  0.80964225  0.39782367    -0.07200
Co801      Co  0.06791410  0.91245664  0.35433178     0.74180
N802        N  0.10586617  0.87789898  0.34619672    -0.26380
Co803      Co  0.10766499  0.87694142  0.38375882     0.74070
C804        C  0.10291996  0.80168147  0.38495007     0.42240
N805        N  0.03257155  0.84012150  0.39658913     0.00640
N806        N  0.10151712  0.83963342  0.38476750     0.00750
N807        N  0.09957135  0.94872857  0.36934071    -0.47220
H808        H  0.04586987  0.90201977  0.30162574     0.06510
N809        N  0.08986762  0.89111216  0.33632942     0.01040
N810        N  0.10676127  0.87615109  0.42137329     0.00780
C811        C  0.11263645  0.87643110  0.45847387     0.42380
N812        N  0.01818904  0.85441282  0.38615270    -0.25830
C813        C  0.04486464  0.95708307  0.37547639    -0.06750
N814        N  0.00617688  0.88103840  0.33739405    -0.46940
N815        N  0.12189355  0.88294207  0.43753715    -0.47160
C816        C  0.02549802  0.96137727  0.39142243     0.42150
N817        N  0.09580980  0.92630691  0.37031152     0.01020
N818        N  0.02487795  0.88930044  0.42181177    -0.25850
N819        N  0.03977320  0.89824061  0.33811821    -0.26350
N820        N  0.03890856  0.87498691  0.43262624     0.00660
H821        H  0.99764823  0.91197408  0.43368300     0.06550
H822        H  0.07854688  0.85839244  0.46606305     0.06590
N823        N  0.11108403  0.91443369  0.38264742    -0.26400
N824        N  0.08317404  0.83253606  0.39641516    -0.26010
N825        N  0.02931099  0.92481666  0.38597391     0.01030
C826        C  0.10753455  0.87687785  0.30682360     0.42420
C827        C  0.00061313  0.84236244  0.37748529    -0.07260
N828        N  0.08853319  0.86640955  0.43117217    -0.26010
H829        H  0.07069846  0.80040722  0.40852127     0.06570
N830        N  0.09034222  0.89091567  0.31351290    -0.47230
H831        H  0.98573915  0.84958505  0.36867216     0.06560
C832        C  0.01897210  0.89067021  0.45979331     0.42260
C833        C  0.03497117  0.89595445  0.31555684    -0.06760
Co834      Co  0.02343694  0.88969772  0.38610239     0.73820
N835        N  0.02545094  0.81833914  0.39607320    -0.46950
C836        C  0.11829193  0.95323375  0.38186279     0.42530
N837        N  0.01672531  0.94048355  0.39689143    -0.46940
Co838      Co  0.06080217  0.85334840  0.41417588     0.73890
C839        C  0.09087042  0.86565973  0.45396936    -0.07270
C840        C  0.11825499  0.86812071  0.32861888    -0.06830
N841        N  0.04590330  0.93391315  0.37335227    -0.26360
N842        N  0.11409777  0.82138969  0.37754172    -0.47120
H843        H  0.14080994  0.92652357  0.40216677     0.06530
C844        C  0.01182966  0.90029091  0.43750822    -0.07240
Cl845      Cl  0.06539266  0.88301402  0.38456740    -0.50240
C846        C  0.00557919  0.81843519  0.38380656     0.42290
H847        H  0.05625489  0.96916784  0.36690053     0.06500
N848        N  0.03560088  0.87484273  0.45530050    -0.46950
C849        C  0.80729638  0.01139892  0.38967668     0.42140
N850        N  0.84170828  0.02442280  0.39150478     0.01030
C851        C  0.88079059  0.12775818  0.43497694    -0.06850
H852        H  0.82203657  0.13505659  0.36029641     0.06520
C853        C  0.88648928  0.08642254  0.31289838    -0.07200
Co854      Co  0.84508465  0.06929831  0.41533527     0.74180
N855        N  0.83720719  0.10797049  0.38175391    -0.26380
Co856      Co  0.87477669  0.10987977  0.38125580     0.74070
C857        C  0.87381243  0.10695088  0.30635690     0.42240
N858        N  0.88700069  0.03616290  0.34239973     0.00640
N859        N  0.87557096  0.10488041  0.34395174     0.00750
N860        N  0.85930667  0.10030647  0.45231403    -0.47220
H861        H  0.79237496  0.04380406  0.40792123     0.06510
N862        N  0.82715685  0.09187469  0.39468602     0.01040
N863        N  0.91270017  0.10865686  0.38059584     0.00780
C864        C  0.95028242  0.11274613  0.38077819     0.42380
N865        N  0.87684130  0.02103089  0.35601838    -0.25830
C866        C  0.86555495  0.04568987  0.45926770    -0.06750
N867        N  0.82947423  0.00664627  0.38460058    -0.46940
N868        N  0.92969900  0.12258823  0.38814054    -0.47160
C869        C  0.88127538  0.02633045  0.46361030     0.42150
N870        N  0.86098283  0.09684869  0.42991047     0.01020
N871        N  0.91273107  0.02679629  0.39105716    -0.25850
N872        N  0.82900409  0.04097376  0.40070319    -0.26350
N873        N  0.92337666  0.04134639  0.37718623     0.00660
H874        H  0.92462076  0.00078967  0.41490380     0.06550
H875        H  0.95524335  0.08028686  0.35870338     0.06590
N876        N  0.87319825  0.11258912  0.41864404    -0.26400
N877        N  0.88667595  0.08650741  0.33590176    -0.26010
N878        N  0.87683013  0.03038593  0.42700800     0.01030
C879        C  0.79795777  0.10995692  0.38054073     0.42420
C880        C  0.86697192  0.00474909  0.34295597    -0.07260
N881        N  0.92170501  0.09085184  0.36941473    -0.26010
H882        H  0.89534028  0.07395791  0.30201292     0.06570
N883        N  0.80436071  0.09268772  0.39460529    -0.47230
H884        H  0.85770706  0.98983907  0.34940927     0.06560
C885        C  0.95080494  0.02350192  0.39485254     0.42260
C886        C  0.80673788  0.03439544  0.40033812    -0.06760
Co887      Co  0.87713293  0.02518148  0.39152407     0.73820
N888        N  0.88492571  0.03113290  0.32021997    -0.46950
C889        C  0.87107995  0.11933464  0.45748717     0.42530
N890        N  0.88715576  0.01740409  0.44280794    -0.46940
Co891      Co  0.90466209  0.06371298  0.35602168     0.73890
C892        C  0.94434953  0.09248130  0.36788177    -0.07270
C893        C  0.81981341  0.12038032  0.37175428    -0.06830
N894        N  0.86405185  0.04696229  0.43614544    -0.26360
N895        N  0.86736901  0.11785774  0.32649536    -0.47120
H896        H  0.89093226  0.14308941  0.43156070     0.06530
C897        C  0.92851334  0.01458690  0.40285715    -0.07240
Cl898      Cl  0.87540343  0.06723762  0.38602307    -0.50240
C899        C  0.87207236  0.01178862  0.31919972     0.42290
H900        H  0.85639909  0.05659055  0.47149322     0.06500
N901        N  0.94616216  0.03973388  0.37863746    -0.46950
C902        C  0.87639574  0.80940676  0.52576441     0.42140
N903        N  0.88107423  0.84523793  0.53443955     0.01030
C904        C  0.92623187  0.88797717  0.63605359    -0.06850
H905        H  0.85365716  0.82555674  0.64530715     0.06520
C906        C  0.80340994  0.89057100  0.59684049    -0.07200
Co907      Co  0.90648569  0.85077860  0.57845953     0.74180
N908        N  0.87404576  0.84170796  0.61798165    -0.26380
Co909      Co  0.87218075  0.87927711  0.61970402     0.74070
C910        C  0.79701154  0.87701594  0.61663729     0.42240
N911        N  0.83149255  0.89152666  0.54662626     0.00640
N912        N  0.83457931  0.87944880  0.61506194     0.00750
N913        N  0.94397467  0.86784714  0.60766260    -0.47220
H914        H  0.89659378  0.79771915  0.55834843     0.06510
N915        N  0.88708305  0.83220132  0.60162895     0.01040
N916        N  0.87050131  0.91686907  0.61896190     0.00780
C917        C  0.86966827  0.95383401  0.62561911     0.42380
N918        N  0.84478403  0.88084297  0.53145394    -0.25830
C919        C  0.94894586  0.87168835  0.55226598    -0.06750
N920        N  0.87197423  0.83137459  0.51877768    -0.46940
N921        N  0.87744685  0.93298789  0.63407484    -0.47160
C922        C  0.95185092  0.88654102  0.53196378     0.42150
N923        N  0.92135143  0.86769220  0.60534116     0.01020
N924        N  0.87930303  0.91704336  0.53584593    -0.25850
N925        N  0.89123482  0.83374740  0.55126590    -0.26350
N926        N  0.86602106  0.92787469  0.55093158     0.00660
H927        H  0.90089477  0.92901488  0.50780517     0.06550
H928        H  0.85005464  0.96151102  0.59233827     0.06590
N929        N  0.90985821  0.87915696  0.62158721    -0.26400
N930        N  0.82636522  0.89104720  0.59705967    -0.26010
N931        N  0.91569841  0.88182388  0.53861746     0.01030
C932        C  0.87405709  0.80228183  0.61941396     0.42420
C933        C  0.83152285  0.87185661  0.51486462    -0.07260
N934        N  0.85972123  0.92664639  0.60126977    -0.26010
H935        H  0.79241747  0.89939375  0.58448684     0.06570
N936        N  0.88745637  0.80935603  0.60194367    -0.47230
H937        H  0.83762812  0.86257005  0.49976184     0.06560
C938        C  0.88098932  0.95501933  0.53069690     0.42260
C939        C  0.88952029  0.81101199  0.54726255    -0.06760
Co940      Co  0.88029918  0.88120303  0.53460963     0.73820
N941        N  0.80930698  0.89075870  0.54119181    -0.46950
C942        C  0.94898120  0.88003316  0.62650824     0.42530
N943        N  0.93045155  0.89173344  0.52430314    -0.46940
Co944      Co  0.84581521  0.90933041  0.57402669     0.73890
C945        C  0.85826123  0.94942396  0.60410859    -0.07270
C946        C  0.86501926  0.82383070  0.63048575    -0.06830
N947        N  0.92596700  0.86988137  0.55507757    -0.26360
N948        N  0.81712052  0.87068412  0.62769984    -0.47120
H949        H  0.92281459  0.89835496  0.65127632     0.06530
C950        C  0.88968700  0.93276772  0.52237484    -0.07240
Cl951      Cl  0.87615480  0.88014646  0.57690738    -0.50240
C952        C  0.80808186  0.87840157  0.52150234     0.42290
H953        H  0.96195156  0.86273138  0.56236578     0.06500
N954        N  0.86618610  0.95064001  0.54823491    -0.46950
C955        C  0.12350561  0.05889713  0.49318803     0.42140
N956        N  0.13787402  0.08460883  0.47090042     0.01030
C957        C  0.11398666  0.20104168  0.46772728    -0.06850
H958        H  0.04110417  0.14771938  0.45998010     0.06520
C959        C  0.07113317  0.11900541  0.38627672    -0.07200
Co960      Co  0.12429871  0.13221022  0.48450820     0.74180
N961        N  0.07730072  0.14180025  0.46672447    -0.26380
Co962      Co  0.09463269  0.15891785  0.44060028     0.74070
C963        C  0.04904029  0.12837423  0.39593056     0.42240
N964        N  0.12764730  0.08974424  0.40266838     0.00640
N965        N  0.07767843  0.14022200  0.41605794     0.00750
N966        N  0.13346004  0.18256885  0.49619793    -0.47220
H967        H  0.10478716  0.08634419  0.51541979     0.06510
N968        N  0.08849228  0.13143654  0.48367151     0.01040
N969        N  0.11173691  0.17550332  0.41471218     0.00780
C970        C  0.12153463  0.20456617  0.39360362     0.42380
N971        N  0.13948513  0.08181464  0.42057156    -0.25830
C972        C  0.17452992  0.14370796  0.49861882    -0.06750
N973        N  0.13743845  0.06202132  0.47474859    -0.46940
N974        N  0.11017186  0.19811106  0.41261785    -0.47160
C975        C  0.19746352  0.13641292  0.49096139     0.42150
N976        N  0.12344178  0.16779609  0.48201893     0.01020
N977        N  0.17297750  0.11719494  0.41843542    -0.25850
N978        N  0.12550396  0.09645861  0.48598346    -0.26350
N979        N  0.16313157  0.12762963  0.40056254     0.00660
H980        H  0.20793248  0.10874893  0.42781919     0.06550
H981        H  0.14063077  0.17996289  0.36777093     0.06590
N982        N  0.11204762  0.17808574  0.46520557    -0.26400
N983        N  0.08815111  0.12772722  0.39988096    -0.26010
N984        N  0.17209583  0.12134256  0.46893236     0.01030
C985        C  0.05278426  0.12742356  0.49225649     0.42420
C986        C  0.14079779  0.05895340  0.42021533    -0.07260
N987        N  0.12358478  0.16515043  0.39801791    -0.26010
H988        H  0.07380449  0.10848424  0.37100627     0.06570
N989        N  0.07445636  0.12269254  0.49954515    -0.47230
H990        H  0.15053978  0.04852868  0.43237098     0.06560
C991        C  0.20012257  0.12847166  0.39454211     0.42260
C992        C  0.11560609  0.08167501  0.50082168    -0.06760
Co993      Co  0.15571684  0.10122109  0.44467011     0.73820
N994        N  0.12028825  0.07202031  0.38957950    -0.46950
C995        C  0.12870700  0.20392667  0.48795363     0.42530
N996        N  0.19460749  0.12232122  0.47265042    -0.46940
Co997      Co  0.12562598  0.12744779  0.39900114     0.73890
C998        C  0.13077149  0.18243976  0.38353376    -0.07270
C999        C  0.05458026  0.14016072  0.47057415    -0.06830
N1000       N  0.15999155  0.13318674  0.48420071    -0.26360
N1001       N  0.05498799  0.14114220  0.41417830    -0.47120
H1002       H  0.10590948  0.21398129  0.45693963     0.06530
C1003       C  0.19580706  0.11681852  0.41602611    -0.07240
Cl1004     Cl  0.12503363  0.12990503  0.44197543    -0.50240
C1005       C  0.12794719  0.05202226  0.40022143     0.42290
H1006       H  0.16961842  0.15388194  0.51358022     0.06500
N1007       N  0.17919244  0.13519480  0.38559988    -0.46950
C1008       C  0.62682380  0.05678989  0.27480111     0.42140
N1009       N  0.61176398  0.08188589  0.29749850     0.01030
C1010       C  0.63489883  0.19904788  0.29848545    -0.06850
H1011       H  0.70715564  0.14580838  0.30863376     0.06520
C1012       C  0.67616415  0.11545114  0.38137522    -0.07200
Co1013     Co  0.62423053  0.12988034  0.28399123     0.74180
N1014       N  0.67089997  0.13989990  0.30214215    -0.26380
Co1015     Co  0.65284867  0.15719383  0.32790155     0.74070
C1016       C  0.69840347  0.12365161  0.37110076     0.42240
N1017       N  0.62061963  0.08814705  0.36581822     0.00640
N1018       N  0.66962356  0.13823832  0.35260987     0.00750
N1019       N  0.61621148  0.17972296  0.27026343    -0.47220
H1020       H  0.64459841  0.08499564  0.25291054     0.06510
N1021       N  0.65987577  0.12942579  0.28528102     0.01040
N1022       N  0.63482183  0.17380496  0.35350368     0.00780
C1023       C  0.62157862  0.20195932  0.37375048     0.42380
N1024       N  0.60920465  0.07926182  0.34815602    -0.25830
C1025       C  0.57452410  0.14122326  0.26900045    -0.06750
N1026       N  0.61276977  0.05936440  0.29331672    -0.46940
N1027       N  0.63469691  0.19655754  0.35545006    -0.47160
C1028       C  0.55141785  0.13351227  0.27545020     0.42150
N1029       N  0.62450194  0.16545035  0.28606974     0.01020
N1030       N  0.57481977  0.11445002  0.34885357    -0.25850
N1031       N  0.62385532  0.09415376  0.28258779    -0.26350
N1032       N  0.58420573  0.12518549  0.36670164     0.00660
H1033       H  0.54006787  0.10675707  0.33847722     0.06550
H1034       H  0.60183051  0.17659694  0.39795432     0.06590
N1035       N  0.63564586  0.17617896  0.30268173    -0.26400
N1036       N  0.65911023  0.12563482  0.36859948    -0.26010
N1037       N  0.57628067  0.11809129  0.29825296     0.01030
C1038       C  0.69561921  0.12479247  0.27698408     0.42420
C1039       C  0.60872119  0.05630894  0.34968745    -0.07260
N1040       N  0.62248124  0.16292326  0.36948102    -0.26010
H1041       H  0.67348277  0.10373233  0.39576987     0.06570
N1042       N  0.67398246  0.12065101  0.26951391    -0.47230
H1043       H  0.60014750  0.04485359  0.33768824     0.06560
C1044       C  0.54712166  0.12687500  0.37157814     0.42260
C1045       C  0.63410239  0.07982339  0.26755503    -0.06760
Co1046     Co  0.59285006  0.09825600  0.32321698     0.73820
N1047       N  0.62862392  0.07138529  0.37973976    -0.46950
C1048       C  0.62166561  0.20127168  0.27709689     0.42530
N1049       N  0.55383688  0.11896786  0.29365975    -0.46940
Co1050     Co  0.62160751  0.12544681  0.36889645     0.73890
C1051       C  0.61302297  0.17961093  0.38321998    -0.07270
C1052       C  0.69368733  0.13800260  0.29834718    -0.06830
N1053       N  0.58864597  0.13044673  0.28367710    -0.26360
N1054       N  0.69235901  0.13745913  0.35353089    -0.47120
H1055       H  0.64367616  0.21225028  0.30834728     0.06530
C1056       C  0.55193705  0.11464125  0.35053581    -0.07240
Cl1057     Cl  0.62287154  0.12768307  0.32619551    -0.50240
C1058       C  0.62142500  0.05085922  0.37040639     0.42290
H1059       H  0.57991387  0.15182954  0.25450638     0.06500
N1060       N  0.56780466  0.13338249  0.38098216    -0.46950
C1061       C  0.12166968  0.86611251  0.05708216     0.42140
N1062       N  0.10984729  0.84608853  0.08586910     0.01030
C1063       C  0.13692429  0.84451607  0.20319768    -0.06850
H1064       H  0.20449587  0.82793762  0.15150507     0.06520
C1065       C  0.16619910  0.75981066  0.12100615    -0.07200
Co1066     Co  0.12384500  0.86258149  0.13353905     0.74180
N1067       N  0.17007820  0.84035603  0.14465218    -0.26380
Co1068     Co  0.15099400  0.81622106  0.16204065     0.74070
C1069       C  0.18966506  0.76559376  0.12794075     0.42240
N1070       N  0.11717641  0.77837728  0.09654851     0.00640
N1071       N  0.16600376  0.78983649  0.14304760     0.00750
N1072       N  0.11727240  0.87477442  0.18767434    -0.47220
H1073       H  0.14248439  0.89037061  0.08129345     0.06510
N1074       N  0.16132876  0.85855332  0.13371803     0.01040
N1075       N  0.13103457  0.79209185  0.17952672     0.00780
C1076       C  0.11602128  0.77039213  0.20560427     0.42380
N1077       N  0.10720569  0.79545655  0.08524134    -0.25830
C1078       C  0.06928252  0.87863072  0.14057671    -0.06750
N1079       N  0.10872872  0.84804843  0.06317553    -0.46940
N1080       N  0.13088282  0.78802387  0.20208948    -0.47160
C1081       C  0.04699897  0.86915635  0.13140671     0.42150
N1082       N  0.12490239  0.86039156  0.17109094     0.01020
N1083       N  0.07176621  0.79771570  0.12124048    -0.25850
N1084       N  0.12267122  0.86200880  0.09608687    -0.26350
N1085       N  0.08193917  0.78086453  0.13270481     0.00660
H1086       H  0.03593094  0.80539961  0.11391575     0.06550
H1087       H  0.09719338  0.74850802  0.17829800     0.06590
N1088       N  0.13604424  0.84255646  0.18030664    -0.26400
N1089       N  0.15286201  0.77542187  0.13151033    -0.26010
N1090       N  0.07556734  0.84776426  0.12089311     0.01030
C1091       C  0.19869250  0.86089580  0.13046353     0.42420
C1092       C  0.10855756  0.79118202  0.06246613    -0.07260
N1093       N  0.11801301  0.77754659  0.16796917    -0.26010
H1094       H  0.16008032  0.74534680  0.11088103     0.06570
N1095       N  0.17826547  0.87166899  0.12480033    -0.47230
H1096       H  0.10089240  0.80156116  0.04885789     0.06560
C1097       C  0.04578628  0.77414885  0.13663541     0.42260
C1098       C  0.13151440  0.87545369  0.07888702    -0.06760
Co1099     Co  0.09112853  0.82183383  0.10323594     0.73820
N1100       N  0.12527533  0.76207510  0.08271031    -0.46950
C1101       C  0.12470795  0.86558790  0.20829663     0.42530
N1102       N  0.05307280  0.85024640  0.11971107    -0.46940
Co1103     Co  0.11742550  0.77766616  0.13223789     0.73890
C1104       C  0.10778510  0.76316575  0.18292723    -0.07270
C1105       C  0.19304623  0.84053085  0.14360710    -0.06830
N1106       N  0.08625400  0.86403392  0.13279730    -0.26360
N1107       N  0.18822735  0.78430577  0.14185575    -0.47120
H1108       H  0.14524504  0.83244281  0.21490253     0.06530
C1109       C  0.04881802  0.79493253  0.12263852    -0.07240
Cl1110     Cl  0.12088656  0.82001254  0.13283143    -0.50240
C1111       C  0.12100411  0.76922134  0.06091009     0.42290
H1112       H  0.07220221  0.89420397  0.15049233     0.06500
N1113       N  0.06709846  0.76606073  0.14173254    -0.46950
C1114       C  0.04756706  0.63174413  0.36915695     0.42140
N1115       N  0.07632976  0.61783255  0.35002363     0.01030
C1116       C  0.19428427  0.63939870  0.34901078    -0.06850
H1117       H  0.14834518  0.70958256  0.33496921     0.06520
C1118       C  0.11431380  0.67485267  0.26448377    -0.07200
Co1119     Co  0.12432477  0.62976399  0.36672065     0.74180
N1120       N  0.13783866  0.67562675  0.34560006    -0.26380
Co1121     Co  0.15398724  0.65593900  0.32103934     0.74070
C1122       C  0.12207281  0.69764444  0.27177306     0.42240
N1123       N  0.08723190  0.62546578  0.28264654     0.00640
N1124       N  0.13586020  0.67232174  0.29488478     0.00750
N1125       N  0.17764559  0.62126679  0.37960644    -0.47220
H1126       H  0.07256744  0.65096452  0.39410720     0.06510
N1127       N  0.12630208  0.66712853  0.36346513     0.01040
N1128       N  0.17055305  0.63561499  0.29674960     0.00780
C1129       C  0.19619865  0.62018726  0.27483080     0.42380
N1130       N  0.07581875  0.61540311  0.29959613    -0.25830
C1131       C  0.13145576  0.57535520  0.38142249    -0.06750
N1132       N  0.05362504  0.61822443  0.35138269    -0.46940
N1133       N  0.19309115  0.63455562  0.29294386    -0.47160
C1134       C  0.12175970  0.55331859  0.37237950     0.42150
N1135       N  0.16163396  0.62925280  0.36486843     0.01020
N1136       N  0.11053170  0.57865189  0.30118826    -0.25850
N1137       N  0.08684815  0.63020934  0.36607804    -0.26350
N1138       N  0.12226166  0.58880652  0.28449601     0.00660
H1139       H  0.10318776  0.54271340  0.30863408     0.06550
H1140       H  0.16845388  0.60270435  0.25242697     0.06590
N1141       N  0.17143922  0.63969919  0.34699211    -0.26400
N1142       N  0.12383832  0.66027574  0.27982522    -0.26010
N1143       N  0.10998143  0.58177730  0.35177550     0.01030
C1144       C  0.12756016  0.70445063  0.36836949     0.42420
C1145       C  0.05311218  0.61754145  0.29569807    -0.07260
N1146       N  0.15860217  0.62352631  0.28174269    -0.26010
H1147       H  0.10406643  0.67001063  0.24963264     0.06570
N1148       N  0.11938268  0.68416085  0.37762670    -0.47230
H1149       H  0.03944964  0.61007425  0.30610094     0.06560
C1150       C  0.12646326  0.55258949  0.27779014     0.42260
C1151       C  0.06981365  0.64003553  0.37918451    -0.06760
Co1152     Co  0.09304576  0.59831953  0.32575984     0.73820
N1153       N  0.07342472  0.63438752  0.26675916    -0.46950
C1154       C  0.19856079  0.62732121  0.37027531     0.42530
N1155       N  0.10891990  0.55914057  0.35414080    -0.46940
Co1156     Co  0.12294769  0.62448155  0.28165234     0.73890
C1157       C  0.17326546  0.61291978  0.26733063    -0.07270
C1158       C  0.13937335  0.69855089  0.34715380    -0.06830
N1159       N  0.12264386  0.59232194  0.36758210    -0.26360
N1160       N  0.13566492  0.69479958  0.29045660    -0.47120
H1161       H  0.20644319  0.64724591  0.33711458     0.06530
C1162       C  0.11182229  0.55564293  0.29819204    -0.07240
Cl1163     Cl  0.12355701  0.62717739  0.32398660    -0.50240
C1164       C  0.05161856  0.63055508  0.27415715     0.42290
H1165       H  0.14260514  0.57801947  0.39617846     0.06500
N1166       N  0.13172715  0.57390196  0.26991017    -0.46950
C1167       C  0.76039754  0.12442222  0.06607674     0.42140
N1168       N  0.78528976  0.11177229  0.09012251     0.01030
C1169       C  0.78828442  0.13774253  0.20655231    -0.06850
H1170       H  0.79382999  0.20874653  0.14949641     0.06520
C1171       C  0.86817227  0.18034395  0.12175273    -0.07200
Co1172     Co  0.77258613  0.12381737  0.13842715     0.74180
N1173       N  0.78833639  0.17190844  0.14669306    -0.26380
Co1174     Co  0.81558646  0.15559953  0.16357590     0.74070
C1175       C  0.85756214  0.20239399  0.13025403     0.42240
N1176       N  0.85324193  0.12410710  0.09382379     0.00640
N1177       N  0.83901557  0.17312059  0.14374964     0.00750
N1178       N  0.76083760  0.11656462  0.18883367    -0.47220
H1179       H  0.73811204  0.14051611  0.09497381     0.06510
N1180       N  0.77183610  0.15953618  0.13722681     0.01040
N1181       N  0.84245216  0.13895422  0.17970937     0.00780
C1182       C  0.86293042  0.12547800  0.20757502     0.42380
N1183       N  0.83565445  0.11203092  0.08580324    -0.25830
C1184       C  0.76080806  0.07295790  0.15004845    -0.06750
N1185       N  0.78006262  0.11195043  0.06781583    -0.46940
N1186       N  0.84461003  0.13869959  0.20243933    -0.47160
C1187       C  0.76873410  0.05029686  0.14199463     0.42150
N1188       N  0.77584360  0.12497853  0.17382165     0.01020
N1189       N  0.83938947  0.07792644  0.12064323    -0.25850
N1190       N  0.76993383  0.12273416  0.10293707    -0.26350
N1191       N  0.85687561  0.08807918  0.13113536     0.00660
H1192       H  0.83082982  0.04286589  0.11209109     0.06550
H1193       H  0.88696627  0.10594699  0.18173501     0.06590
N1194       N  0.79194065  0.13758445  0.18362057    -0.26400
N1195       N  0.85539415  0.16300213  0.13127057    -0.26010
N1196       N  0.78943197  0.07681673  0.12646174     0.01030
C1197       C  0.76194922  0.19461139  0.13022418     0.42420
C1198       C  0.83613451  0.11132802  0.06289186    -0.07260
N1199       N  0.85841768  0.12674368  0.16856517    -0.26010
H1200       H  0.88329692  0.17787559  0.11095522     0.06570
N1201       N  0.75565334  0.17237009  0.12739085    -0.47230
H1202       H  0.82421323  0.10178332  0.05216071     0.06560
C1203       C  0.86381586  0.05124638  0.13171236     0.42260
C1204       C  0.75344959  0.13131827  0.08928352    -0.06760
Co1205     Co  0.81246689  0.09456169  0.10562392     0.73820
N1206       N  0.86615942  0.13228883  0.07633127    -0.46950
C1207       C  0.76776808  0.12352040  0.20992463     0.42530
N1208       N  0.78632908  0.05414244  0.12711985    -0.46940
Co1209     Co  0.85725439  0.12555390  0.13115949     0.73890
C1210       C  0.87231369  0.11721371  0.18500817    -0.07270
C1211       C  0.78354479  0.19442824  0.14337563    -0.06830
N1212       N  0.77439925  0.08817448  0.13929308    -0.26360
N1213       N  0.83983708  0.19590812  0.14365627    -0.47120
H1214       H  0.79777164  0.14786331  0.21904771     0.06530
C1215       C  0.84238222  0.05518276  0.12004146    -0.07240
Cl1216     Cl  0.81467041  0.12490979  0.13467306    -0.50240
C1217       C  0.85602209  0.12467107  0.05627954     0.42290
H1218       H  0.74587815  0.07725645  0.16056670     0.06500
N1219       N  0.87214794  0.07227852  0.13869611    -0.46950
C1220       C  0.85955243  0.55155120  0.63141837     0.42140
N1221       N  0.84083150  0.58139608  0.61934401     0.01030
C1222       C  0.84391679  0.69867538  0.64622013    -0.06850
H1223       H  0.82616461  0.64677055  0.71408420     0.06520
C1224       C  0.75628196  0.62049698  0.67550769    -0.07200
Co1225     Co  0.85949830  0.62835758  0.63300599     0.74180
N1226       N  0.83811043  0.63978608  0.67948639    -0.26380
Co1227     Co  0.81476799  0.65835619  0.66053188     0.74070
C1228       C  0.76259059  0.62704843  0.69896518     0.42240
N1229       N  0.77374527  0.59506637  0.62598780     0.00640
N1230       N  0.78762457  0.64053499  0.67540222     0.00750
N1231       N  0.87317203  0.68226049  0.62586185    -0.47220
H1232       H  0.88586044  0.57523416  0.65060014     0.06510
N1233       N  0.85588646  0.62836913  0.67053743     0.01040
N1234       N  0.79164142  0.67700101  0.64066283     0.00780
C1235       C  0.77160539  0.70445689  0.62582438     0.42380
N1236       N  0.78994975  0.58272446  0.61571829    -0.25830
C1237       C  0.87511204  0.63656435  0.57918594    -0.06750
N1238       N  0.84147493  0.55863651  0.61886272    -0.46940
N1239       N  0.78895279  0.69974913  0.64062248    -0.47160
C1240       C  0.86598225  0.62795368  0.55677624     0.42150
N1241       N  0.85879949  0.66604719  0.63419160     0.01020
N1242       N  0.79404297  0.61861480  0.58062509    -0.25850
N1243       N  0.85758841  0.59094619  0.63156554    -0.26350
N1244       N  0.77796456  0.63104582  0.59093999     0.00660
H1245       H  0.80098473  0.61021212  0.54513105     0.06550
H1246       H  0.74828944  0.67873705  0.60654374     0.06590
N1247       N  0.84153662  0.67579893  0.64569838    -0.26400
N1248       N  0.77252670  0.62996050  0.66217668    -0.26010
N1249       N  0.84446174  0.61625001  0.58451833     0.01030
C1250       C  0.85846781  0.62484660  0.70789108     0.42420
C1251       C  0.78341688  0.56037867  0.61562614    -0.07260
N1252       N  0.77653955  0.66639041  0.62749041    -0.26010
H1253       H  0.74124645  0.61128303  0.66940443     0.06570
N1254       N  0.86889092  0.61895673  0.68733889    -0.47230
H1255       H  0.79249367  0.54631657  0.60712659     0.06560
C1256       C  0.77026886  0.63446047  0.55466421     0.42260
C1257       C  0.87061665  0.57318721  0.64004119    -0.06760
Co1258     Co  0.81753090  0.59959305  0.60004819     0.73820
N1259       N  0.75608703  0.58251300  0.63295197    -0.46950
C1260       C  0.86457424  0.70320717  0.63327481     0.42530
N1261       N  0.84705195  0.61590308  0.56187856    -0.46940
Co1262     Co  0.77482964  0.63071337  0.62660610     0.73890
C1263       C  0.76309941  0.68228609  0.61735538    -0.07270
C1264       C  0.83836681  0.63849063  0.70247793    -0.06830
N1265       N  0.86061550  0.62795340  0.59564448    -0.26360
N1266       N  0.78213324  0.63961040  0.69766551    -0.47120
H1267       H  0.83221337  0.71079287  0.65449768     0.06530
C1268       C  0.79075415  0.61962907  0.55766768    -0.07240
Cl1269     Cl  0.81684413  0.62922616  0.63005618    -0.50240
C1270       C  0.76077389  0.56044542  0.62707200     0.42290
H1271       H  0.89032162  0.64687990  0.58241873     0.06500
N1272       N  0.76336122  0.64060044  0.57619072    -0.46950
C1273       C  0.12228441  0.06002338  0.76985444     0.42140
N1274       N  0.10899670  0.08505977  0.79374995     0.01030
C1275       C  0.13597080  0.20132140  0.79721044    -0.06850
H1276       H  0.20652339  0.14821966  0.80086550     0.06520
C1277       C  0.17686950  0.11443772  0.87636158    -0.07200
Co1278     Co  0.12233636  0.13302378  0.78105042     0.74180
N1279       N  0.17008906  0.14123244  0.79731022    -0.26380
Co1280     Co  0.15372230  0.15804638  0.82438686     0.74070
C1281       C  0.19901755  0.12112944  0.86499406     0.42240
N1282       N  0.12050184  0.08936209  0.86195210     0.00640
N1283       N  0.17049706  0.13766647  0.84789462     0.00750
N1284       N  0.11484238  0.18380194  0.76954577    -0.47220
H1285       H  0.14013457  0.08822277  0.74795393     0.06510
N1286       N  0.15790623  0.13139382  0.78088198     0.01040
N1287       N  0.13739522  0.17460647  0.85106481     0.00780
C1288       C  0.12505797  0.20312183  0.87143403     0.42380
N1289       N  0.10839399  0.08123891  0.84438958    -0.25830
C1290       C  0.07240315  0.14575991  0.76804068    -0.06750
N1291       N  0.10909541  0.06265338  0.78897599    -0.46940
N1292       N  0.13819063  0.19729739  0.85328533    -0.47160
C1293       C  0.04942728  0.13795679  0.77486670     0.42150
N1294       N  0.12378740  0.16860527  0.78415015     0.01020
N1295       N  0.07470913  0.11742075  0.84707303    -0.25850
N1296       N  0.12084760  0.09731985  0.77864375    -0.26350
N1297       N  0.08486912  0.12760916  0.86479541     0.00660
H1298       H  0.03946314  0.11145681  0.83716729     0.06550
H1299       H  0.10376299  0.17830052  0.89491106     0.06590
N1300       N  0.13621829  0.17833042  0.80046780    -0.26400
N1301       N  0.15992508  0.12550643  0.86420855    -0.26010
N1302       N  0.07478223  0.12215944  0.79683390     0.01030
C1303       C  0.19287221  0.12826406  0.76931069     0.42420
C1304       C  0.10863308  0.05824268  0.84449549    -0.07260
N1305       N  0.12449736  0.16404023  0.86679531    -0.26010
H1306       H  0.17413819  0.10285619  0.89085411     0.06570
N1307       N  0.17080642  0.12359519  0.76369920    -0.47230
H1308       H  0.09984160  0.04723922  0.83223972     0.06560
C1309       C  0.04787109  0.13098524  0.87026916     0.42260
C1310       C  0.13002528  0.08302219  0.76285869    -0.06760
Co1311     Co  0.09155073  0.10128147  0.82059378     0.73820
N1312       N  0.12973808  0.07199821  0.87435723    -0.46950
C1313       C  0.12126465  0.20488446  0.77700826     0.42530
N1314       N  0.05229310  0.12316369  0.79276517    -0.46940
Co1315     Co  0.12243831  0.12662145  0.86576564     0.73890
C1316       C  0.11535447  0.18099588  0.88042506    -0.07270
C1317       C  0.19253613  0.14010509  0.79157288    -0.06830
N1318       N  0.08684795  0.13464599  0.78214667    -0.26360
N1319       N  0.19318923  0.13566844  0.84793738    -0.47120
H1320       H  0.14555374  0.21386886  0.80717034     0.06530
C1321       C  0.05186344  0.11863202  0.84913037    -0.07240
Cl1322     Cl  0.12251980  0.12971472  0.82313300    -0.50240
C1323       C  0.12288171  0.05190027  0.86388213     0.42290
H1324       H  0.07745614  0.15609145  0.75322531     0.06500
N1325       N  0.06903492  0.13635719  0.87943953    -0.46950
C1326       C  0.62033609  0.36720286  0.05882095     0.42140
N1327       N  0.60944075  0.34679900  0.08803649     0.01030
C1328       C  0.64151770  0.34057077  0.20343989    -0.06850
H1329       H  0.70672536  0.32746677  0.14960638     0.06520
C1330       C  0.66768362  0.25774370  0.11947241    -0.07200
Co1331     Co  0.62513923  0.36174432  0.13559777     0.74180
N1332       N  0.67191474  0.33925180  0.14360187    -0.26380
Co1333     Co  0.65365234  0.31447349  0.16085179     0.74070
C1334       C  0.69139725  0.26406764  0.12540395     0.42240
N1335       N  0.61733873  0.27880542  0.09599708     0.00640
N1336       N  0.66784847  0.28857607  0.14052027     0.00750
N1337       N  0.61998882  0.37081415  0.19089334    -0.47220
H1338       H  0.64095788  0.39169226  0.08340133     0.06510
N1339       N  0.66257806  0.35793956  0.13405882     0.01040
N1340       N  0.63426910  0.28988946  0.17858129     0.00780
C1341       C  0.61924816  0.26858037  0.20499737     0.42380
N1342       N  0.60675389  0.29627784  0.08582384    -0.25830
C1343       C  0.57156093  0.37729271  0.14653885    -0.06750
N1344       N  0.60784050  0.34896487  0.06543390    -0.46940
N1345       N  0.63431049  0.28594380  0.20117425    -0.47160
C1346       C  0.54887599  0.36821679  0.13861751     0.42150
N1347       N  0.62768422  0.35800707  0.17302622     0.01020
N1348       N  0.57277874  0.29745812  0.12326307    -0.25850
N1349       N  0.62232677  0.36269094  0.09812248    -0.26350
N1350       N  0.58335989  0.28009482  0.13355854     0.00660
H1351       H  0.53674167  0.30565994  0.11779547     0.06550
H1352       H  0.59940353  0.24704976  0.17820031     0.06590
N1353       N  0.63968728  0.34004116  0.18063248    -0.26400
N1354       N  0.65446159  0.27381931  0.12970279    -0.26010
N1355       N  0.57627261  0.34758096  0.12458732     0.01030
C1356       C  0.69976545  0.36153383  0.13082136     0.42420
C1357       C  0.60833303  0.29360601  0.06281925    -0.07260
N1358       N  0.62081924  0.27552853  0.16727764    -0.26010
H1359       H  0.66127063  0.24287939  0.11015767     0.06570
N1360       N  0.67904806  0.37208315  0.12594395    -0.47230
H1361       H  0.60106838  0.30509246  0.04990563     0.06560
C1362       C  0.54730519  0.27344684  0.13873353     0.42260
C1363       C  0.63019018  0.37668538  0.08081257    -0.06760
Co1364     Co  0.59124893  0.32212869  0.10532224     0.73820
N1365       N  0.62649519  0.26401829  0.08111633    -0.46950
C1366       C  0.62790620  0.36016338  0.21071488     0.42530
N1367       N  0.55366411  0.34998922  0.12532911    -0.46940
Co1368     Co  0.61889808  0.27655703  0.13162130     0.73890
C1369       C  0.61068503  0.26130048  0.18246113    -0.07270
C1370       C  0.69486332  0.34006333  0.14234079    -0.06830
N1371       N  0.58776170  0.36318316  0.13667709    -0.26360
N1372       N  0.69003382  0.28325076  0.13866024    -0.47120
H1373       H  0.65129863  0.32821645  0.21359108     0.06530
C1374       C  0.54990338  0.29479082  0.12556978    -0.07240
Cl1375     Cl  0.62228105  0.31893061  0.13334428    -0.50240
C1376       C  0.62183700  0.27240309  0.05982887     0.42290
H1377       H  0.57508702  0.39205599  0.15745839     0.06500
N1378       N  0.56878027  0.26506559  0.14262619    -0.46950
C1379       C  0.05417417  0.26729107  0.63478019     0.42140
N1380       N  0.07845347  0.29121499  0.62052282     0.01030
C1381       C  0.19569089  0.29389054  0.64102584    -0.06850
H1382       H  0.14464567  0.30256514  0.71443013     0.06520
C1383       C  0.11353347  0.37585879  0.68462699    -0.07200
Co1384     Co  0.12677070  0.27792699  0.63170666     0.74180
N1385       N  0.13761128  0.29598717  0.67833633    -0.26380
Co1386     Co  0.15392779  0.32204738  0.66010650     0.74070
C1387       C  0.12319795  0.36608883  0.70653057     0.42240
N1388       N  0.08388900  0.35958692  0.62959021     0.00640
N1389       N  0.13532329  0.34649573  0.67739670     0.00750
N1390       N  0.17678702  0.26526388  0.62251078    -0.47220
H1391       H  0.08312667  0.24577717  0.65186262     0.06510
N1392       N  0.12719616  0.27894414  0.66752422     0.01040
N1393       N  0.16980479  0.34781512  0.64217640     0.00780
C1394       C  0.19778780  0.36851066  0.62966260     0.42380
N1395       N  0.07495216  0.34183159  0.61833802    -0.25830
C1396       C  0.13709570  0.26375313  0.58086963    -0.06750
N1397       N  0.05617749  0.28613726  0.62110381    -0.46940
N1398       N  0.19244240  0.35008026  0.64249162    -0.47160
C1399       C  0.12943239  0.27169366  0.55810512     0.42150
N1400       N  0.16226787  0.28062516  0.63121746     0.01020
N1401       N  0.10877541  0.34316145  0.58315631    -0.25850
N1402       N  0.09121066  0.27634980  0.63218618    -0.26350
N1403       N  0.11991653  0.36088038  0.59225195     0.00660
H1404       H  0.09844791  0.33361329  0.54880317     0.06550
H1405       H  0.17220080  0.39300306  0.61028529     0.06590
N1406       N  0.17279624  0.29739266  0.64229368    -0.26400
N1407       N  0.12247584  0.36257630  0.66726556    -0.26010
N1408       N  0.11362513  0.29273132  0.58425826     0.01030
C1409       C  0.12409652  0.27047969  0.70338813     0.42420
C1410       C  0.05202681  0.34332819  0.61796602    -0.07260
N1411       N  0.15874587  0.36383709  0.63001176    -0.26010
H1412       H  0.10239351  0.39079402  0.68231572     0.06570
N1413       N  0.11917753  0.26298240  0.68187271    -0.47230
H1414       H  0.04052087  0.33137211  0.60941894     0.06560
C1415       C  0.11880660  0.36662302  0.55519077     0.42260
C1416       C  0.07743885  0.26074833  0.64207154    -0.06760
Co1417     Co  0.09383018  0.31721363  0.60148724     0.73820
N1418       N  0.06714590  0.37348142  0.63774391    -0.46950
C1419       C  0.19822996  0.27262801  0.62769907     0.42530
N1420       N  0.11466887  0.28951465  0.56160220    -0.46940
Co1421     Co  0.12122742  0.36295244  0.62974904     0.73890
C1422       C  0.17532981  0.37791326  0.62098757    -0.07270
C1423       C  0.13663571  0.29213397  0.70117153    -0.06830
N1424       N  0.12633070  0.27777091  0.59588288    -0.26360
N1425       N  0.13615567  0.34802775  0.70010037    -0.47120
H1426       H  0.20874075  0.30404620  0.64966791     0.06530
C1427       C  0.10714153  0.34543094  0.56036046    -0.07240
Cl1428     Cl  0.12391972  0.32024369  0.63074783    -0.50240
C1429       C  0.04667981  0.36414149  0.63049994     0.42290
H1430       H  0.14817419  0.24930044  0.58542436     0.06500
N1431       N  0.12692161  0.37547791  0.57561464    -0.46950
C1432       C  0.12363956  0.39152970  0.05592752     0.42140
N1433       N  0.13600692  0.41108163  0.08479716     0.01030
C1434       C  0.11017127  0.41205236  0.20255480    -0.06850
H1435       H  0.04392760  0.42954175  0.15533177     0.06520
C1436       C  0.07983995  0.49669924  0.12001361    -0.07200
Co1437     Co  0.12262952  0.39441206  0.13289582     0.74180
N1438       N  0.07694577  0.41695972  0.14500504    -0.26380
Co1439     Co  0.09624045  0.44091992  0.16159504     0.74070
C1440       C  0.05645135  0.49108557  0.12768686     0.42240
N1441       N  0.12867887  0.47862316  0.09511762     0.00640
N1442       N  0.08060480  0.46737992  0.14305050     0.00750
N1443       N  0.12895263  0.38145013  0.18662986    -0.47220
H1444       H  0.10387667  0.36642591  0.08047879     0.06510
N1445       N  0.08501916  0.39814983  0.13471785     0.01040
N1446       N  0.11626743  0.46487311  0.17855088     0.00780
C1447       C  0.13027513  0.48698374  0.20454251     0.42380
N1448       N  0.13872523  0.46150567  0.08393936    -0.25830
C1449       C  0.17712202  0.37886258  0.13980985    -0.06750
N1450       N  0.13655820  0.40953875  0.06203803    -0.46940
N1451       N  0.11640191  0.46865758  0.20111558    -0.47160
C1452       C  0.19937572  0.38814622  0.13042200     0.42150
N1453       N  0.12202602  0.39643199  0.17028693     0.01020
N1454       N  0.17470171  0.45980484  0.11956709    -0.25850
N1455       N  0.12340961  0.39497222  0.09519659    -0.26350
N1456       N  0.16418455  0.47656774  0.13091596     0.00660
H1457       H  0.21088470  0.45155141  0.11433682     0.06550
H1458       H  0.14815902  0.50993525  0.17728014     0.06590
N1459       N  0.11134430  0.41444383  0.17969091    -0.26400
N1460       N  0.09342195  0.48156427  0.13079449    -0.26010
N1461       N  0.17096234  0.40924937  0.11923450     0.01030
C1462       C  0.04756223  0.39423281  0.13765688     0.42420
C1463       C  0.13596149  0.46474698  0.06114447    -0.07260
N1464       N  0.12855376  0.48003439  0.16683316    -0.26010
H1465       H  0.08592789  0.51055712  0.10900877     0.06570
N1466       N  0.06757470  0.38366715  0.12995430    -0.47230
H1467       H  0.14258245  0.45356345  0.04763776     0.06560
C1468       C  0.20010781  0.48291135  0.13677749     0.42260
C1469       C  0.11461544  0.38151821  0.07798569    -0.06760
Co1470     Co  0.15519933  0.43530187  0.10178277     0.73820
N1471       N  0.11891741  0.49386559  0.08108727    -0.46950
C1472       C  0.12147106  0.39039443  0.20730878     0.42530
N1473       N  0.19351509  0.40676637  0.11810617    -0.46940
Co1474     Co  0.12879317  0.47964249  0.13089463     0.73890
C1475       C  0.13812156  0.49482125  0.18181260    -0.07270
C1476       C  0.05414789  0.41634389  0.14686754    -0.06830
N1477       N  0.16021713  0.39317536  0.13152694    -0.26360
N1478       N  0.05832004  0.47279114  0.14223562    -0.47120
H1479       H  0.10184601  0.42396990  0.21441772     0.06530
C1480       C  0.19766565  0.46246309  0.12198473    -0.07240
Cl1481     Cl  0.12570923  0.43733537  0.13181421    -0.50240
C1482       C  0.12244262  0.48607317  0.05935507     0.42290
H1483       H  0.17427605  0.36360574  0.15032494     0.06500
N1484       N  0.17860814  0.49078847  0.14123613    -0.46950
C1485       C  0.44361053  0.37438579  0.24535425     0.42140
N1486       N  0.41996780  0.38991893  0.22124198     0.01030
C1487       C  0.30266488  0.36977124  0.21908750    -0.06850
H1488       H  0.35621968  0.29618636  0.20800127     0.06520
C1489       C  0.38379203  0.32706578  0.13548081    -0.07200
Co1490     Co  0.37154774  0.37890017  0.23405724     0.74180
N1491       N  0.36102049  0.33210952  0.21604761    -0.26380
Co1492     Co  0.34429991  0.35045807  0.19047829     0.74070
C1493       C  0.37477707  0.30503964  0.14523250     0.42240
N1494       N  0.41352365  0.38150465  0.15227852     0.00640
N1495       N  0.36260178  0.33350280  0.16549538     0.00750
N1496       N  0.32204920  0.38934283  0.24660373    -0.47220
H1497       H  0.41342613  0.35698435  0.26508032     0.06510
N1498       N  0.37132502  0.34303635  0.23300341     0.01040
N1499       N  0.32807787  0.36854931  0.16532061     0.00780
C1500       C  0.29883883  0.37967042  0.14530961     0.42380
N1501       N  0.42257743  0.39215985  0.17038092    -0.25830
C1502       C  0.36130795  0.42961610  0.24865506    -0.06750
N1503       N  0.44221528  0.38860477  0.22669817    -0.46940
N1504       N  0.30550082  0.36764813  0.16380656    -0.47160
C1505       C  0.36917918  0.45235832  0.24104526     0.42150
N1506       N  0.33626583  0.37967674  0.23159337     0.01020
N1507       N  0.38864928  0.42752070  0.16935409    -0.25850
N1508       N  0.40686707  0.37816914  0.23561277    -0.26350
N1509       N  0.37724989  0.41852360  0.15170010     0.00660
H1510       H  0.39800044  0.46201367  0.17939417     0.06550
H1511       H  0.32330822  0.39872114  0.11928088     0.06590
N1512       N  0.32551204  0.36812399  0.21535578    -0.26400
N1513       N  0.37498877  0.34397922  0.14929377    -0.26010
N1514       N  0.38478764  0.42637312  0.21975990     0.01030
C1515       C  0.37652563  0.30700474  0.24070517     0.42420
C1516       C  0.44547771  0.39191842  0.16925566    -0.07260
N1517       N  0.33833189  0.38055405  0.14873124    -0.26010
H1518       H  0.39452031  0.32976034  0.12034150     0.06570
N1519       N  0.38072372  0.32872764  0.24820403    -0.47230
H1520       H  0.45706310  0.40000145  0.18146141     0.06560
C1521       C  0.37701811  0.45560088  0.14675307     0.42260
C1522       C  0.42005384  0.36742739  0.25104380    -0.06760
Co1523     Co  0.40424096  0.40912254  0.19517519     0.73820
N1524       N  0.43025173  0.37343839  0.13829585    -0.46950
C1525       C  0.30046644  0.38422944  0.23969099     0.42530
N1526       N  0.38400133  0.44899935  0.22329275    -0.46940
Co1527     Co  0.37603784  0.38125396  0.14914502     0.73890
C1528       C  0.32090951  0.38853663  0.13483539    -0.07270
C1529       C  0.36323103  0.30924005  0.21930603    -0.06830
N1530       N  0.37198418  0.41468735  0.23450733    -0.26360
N1531       N  0.36192105  0.31081555  0.16354344    -0.47120
H1532       H  0.28937261  0.36114302  0.20924998     0.06530
C1533       C  0.38948560  0.45039373  0.16751072    -0.07240
Cl1534     Cl  0.37411723  0.37997572  0.19175856    -0.50240
C1535       C  0.45071640  0.37977923  0.14830547     0.42290
H1536       H  0.35027756  0.42504598  0.26310698     0.06500
N1537       N  0.36951932  0.43518720  0.13750306    -0.46950
C1538       C  0.69774348  0.62488478  0.39265077     0.42140
N1539       N  0.66918647  0.61360554  0.41333799     0.01030
C1540       C  0.55285294  0.64319515  0.41897375    -0.06850
H1541       H  0.60108891  0.70863230  0.43012122     0.06520
C1542       C  0.63649942  0.67495744  0.49913385    -0.07200
Co1543     Co  0.62095869  0.62800729  0.39803069     0.74180
N1544       N  0.61084667  0.67485164  0.41886538    -0.26380
Co1545     Co  0.59489607  0.65693141  0.44429289     0.74070
C1546       C  0.62956221  0.69804499  0.49171795     0.42240
N1547       N  0.66133966  0.62473572  0.48106116     0.00640
N1548       N  0.61457123  0.67318234  0.46908910     0.00750
N1549       N  0.56587429  0.62316708  0.38797214    -0.47220
H1550       H  0.67312519  0.64603256  0.36866859     0.06510
N1551       N  0.62013886  0.66585222  0.39996450     0.01040
N1552       N  0.57826675  0.63813176  0.46958903     0.00780
C1553       C  0.55275669  0.62278942  0.49143995     0.42380
N1554       N  0.67216716  0.61379623  0.46422665    -0.25830
C1555       C  0.61195119  0.57288406  0.38594198    -0.06750
N1556       N  0.69178656  0.61222414  0.41097620    -0.46940
N1557       N  0.55572559  0.63727414  0.47338895    -0.47160
C1558       C  0.61975822  0.55078045  0.39700090     0.42150
N1559       N  0.58349248  0.62972115  0.40155231     0.01020
N1560       N  0.63649282  0.57850400  0.46563848    -0.25850
N1561       N  0.65862608  0.62638501  0.39742478    -0.26350
N1562       N  0.62525573  0.58994256  0.48181022     0.00660
H1563       H  0.64537185  0.54230308  0.46176522     0.06550
H1564       H  0.58045703  0.60478429  0.51374767     0.06590
N1565       N  0.57560958  0.64126297  0.41966060    -0.26400
N1566       N  0.62633344  0.66079741  0.48412138    -0.26010
N1567       N  0.63374675  0.57980494  0.41516664     0.01030
C1568       C  0.61738557  0.70316124  0.39451186     0.42420
C1569       C  0.69506194  0.61590096  0.46747327    -0.07260
N1570       N  0.59024215  0.62582137  0.48450937    -0.26010
H1571       H  0.64641834  0.66969930  0.51412082     0.06570
N1572       N  0.62445453  0.68267571  0.38444763    -0.47230
H1573       H  0.70839862  0.60827372  0.45670767     0.06560
C1574       C  0.62285816  0.55468419  0.49236435     0.42260
C1575       C  0.67570266  0.63494910  0.38357734    -0.06760
Co1576     Co  0.65303473  0.59633675  0.43938287     0.73820
N1577       N  0.67553242  0.63440310  0.49595933    -0.46950
C1578       C  0.54589517  0.63105425  0.39845565     0.42530
N1579       N  0.63327374  0.55705727  0.41449531    -0.46940
Co1580     Co  0.62579549  0.62528613  0.48326446     0.73890
C1581       C  0.57565345  0.61544150  0.49908128    -0.07270
C1582       C  0.60912735  0.69763235  0.41726103    -0.06830
N1583       N  0.62142934  0.59021246  0.39881508    -0.26360
N1584       N  0.61553433  0.69567747  0.47329946    -0.47120
H1585       H  0.54274314  0.65315907  0.43120669     0.06530
C1586       C  0.63618259  0.55586148  0.47092036    -0.07240
Cl1587     Cl  0.62371484  0.62668529  0.44099401    -0.50240
C1588       C  0.69716713  0.62992805  0.48850782     0.42290
H1589       H  0.60091093  0.57529444  0.37103062     0.06500
N1590       N  0.61688422  0.57643497  0.49812157    -0.46950
C1591       C  0.51172895  0.31170193  0.38522344     0.42140
N1592       N  0.53685842  0.33518847  0.39807574     0.01030
C1593       C  0.54088045  0.45180455  0.37215237    -0.06850
H1594       H  0.54596999  0.39834711  0.30105926     0.06520
C1595       C  0.62252221  0.36713995  0.33130620    -0.07200
Co1596     Co  0.52538394  0.38362511  0.38585959     0.74180
N1597       N  0.54207816  0.39265486  0.33790932    -0.26380
Co1598     Co  0.56913009  0.40862582  0.35492466     0.74070
C1599       C  0.61333445  0.37692869  0.30929277     0.42240
N1600       N  0.60529442  0.33806781  0.38704268     0.00640
N1601       N  0.59297868  0.38891960  0.33790354     0.00750
N1602       N  0.51375012  0.43363930  0.39356647    -0.47220
H1603       H  0.49124237  0.34099437  0.36748351     0.06510
N1604       N  0.52571969  0.38294893  0.35034458     0.01040
N1605       N  0.59566314  0.42392873  0.37187976     0.00780
C1606       C  0.61717228  0.45180648  0.38272314     0.42380
N1607       N  0.58719724  0.33005466  0.39858382    -0.25830
C1608       C  0.51111353  0.39486316  0.43614925    -0.06750
N1609       N  0.53096334  0.31307004  0.39824298    -0.46940
N1610       N  0.59856038  0.44644884  0.37042232    -0.47160
C1611       C  0.51833426  0.38706949  0.45914418     0.42150
N1612       N  0.52905348  0.41889293  0.38523698     0.01020
N1613       N  0.58995062  0.36523319  0.43315505    -0.25850
N1614       N  0.52233494  0.34824528  0.38638975    -0.26350
N1615       N  0.60885839  0.37387850  0.42372580     0.00660
H1616       H  0.57901078  0.35620075  0.46715337     0.06550
H1617       H  0.64068400  0.42652681  0.40363841     0.06590
N1618       N  0.54510672  0.42888861  0.37259831    -0.26400
N1619       N  0.60890904  0.37608958  0.34836844    -0.26010
N1620       N  0.53995864  0.37121002  0.43331371     0.01030
C1621       C  0.51406872  0.37890815  0.31545262     0.42420
C1622       C  0.58722848  0.30699855  0.39837840    -0.07260
N1623       N  0.61136199  0.41289192  0.38453488    -0.26010
H1624       H  0.63758151  0.35626200  0.33392554     0.06570
N1625       N  0.50890193  0.37460357  0.33771197    -0.47230
H1626       H  0.57476695  0.29597810  0.40694554     0.06560
C1627       C  0.61526133  0.37040740  0.46081246     0.42260
C1628       C  0.50603389  0.33493864  0.37723795    -0.06760
Co1629     Co  0.56355556  0.35036802  0.41586741     0.73820
N1630       N  0.61825806  0.32065440  0.37871477    -0.46950
C1631       C  0.51996282  0.45481290  0.38617628     0.42530
N1632       N  0.53617727  0.37219652  0.45592693    -0.46940
Co1633     Co  0.60987854  0.37522053  0.38596089     0.73890
C1634       C  0.62571976  0.42955270  0.39283120    -0.07270
C1635       C  0.53631962  0.39107368  0.31538359    -0.06830
N1636       N  0.52538399  0.38405462  0.42148057    -0.26360
N1637       N  0.59510369  0.38991339  0.31519598    -0.47120
H1638       H  0.55016345  0.46441674  0.36188007     0.06530
C1639       C  0.59199125  0.36350766  0.45588520    -0.07240
Cl1640     Cl  0.56721920  0.37945062  0.38567608    -0.50240
C1641       C  0.60751807  0.30063009  0.38539522     0.42290
H1642       H  0.49664436  0.40565636  0.43107677     0.06500
N1643       N  0.62497243  0.37722016  0.44008426    -0.46950
C1644       C  0.36055627  0.05241798  0.63333125     0.42140
N1645       N  0.34148100  0.08151631  0.62053852     0.01030
C1646       C  0.34349870  0.19942998  0.64499261    -0.06850
H1647       H  0.32707553  0.15058819  0.71367029     0.06520
C1648       C  0.25633002  0.12185314  0.67553539    -0.07200
Co1649     Co  0.35991424  0.12888360  0.63318198     0.74180
N1650       N  0.33843418  0.14179023  0.67937298    -0.26380
Co1651     Co  0.31471388  0.15955470  0.66018545     0.74070
C1652       C  0.26265225  0.12819405  0.69901134     0.42240
N1653       N  0.27438698  0.09565294  0.62699942     0.00640
N1654       N  0.28776363  0.14173015  0.67547349     0.00750
N1655       N  0.37339579  0.18295592  0.62558646    -0.47220
H1656       H  0.38581095  0.07638158  0.65316224     0.06510
N1657       N  0.35607473  0.12997193  0.67067312     0.01040
N1658       N  0.29117181  0.17780403  0.64024199     0.00780
C1659       C  0.26918310  0.20406489  0.62595507     0.42380
N1660       N  0.29056867  0.08287656  0.61736302    -0.25830
C1661       C  0.37666474  0.13263782  0.57839713    -0.06750
N1662       N  0.34260034  0.05874027  0.62025616    -0.46940
N1663       N  0.28684189  0.20034404  0.64076464    -0.47160
C1664       C  0.36705000  0.12289349  0.55638100     0.42150
N1665       N  0.35884789  0.16673121  0.63359747     0.01020
N1666       N  0.29457356  0.11807123  0.58132848    -0.25850
N1667       N  0.35787934  0.09152033  0.63294635    -0.26350
N1668       N  0.27886297  0.13106739  0.59145769     0.00660
H1669       H  0.30018354  0.10876468  0.54561704     0.06550
H1670       H  0.24808355  0.17723630  0.60582273     0.06590
N1671       N  0.34131625  0.17657444  0.64470883    -0.26400
N1672       N  0.27276286  0.13104002  0.66226383    -0.26010
N1673       N  0.34459328  0.11537460  0.58505886     0.01030
C1674       C  0.35938890  0.12831189  0.70815407     0.42420
C1675       C  0.28441839  0.06047698  0.61907049    -0.07260
N1676       N  0.27684455  0.16657826  0.62678662    -0.26010
H1677       H  0.24113222  0.11295904  0.66941106     0.06570
N1678       N  0.36921565  0.12119470  0.68768455    -0.47230
H1679       H  0.29385477  0.04596880  0.61180985     0.06560
C1680       C  0.27141968  0.13442432  0.55535890     0.42260
C1681       C  0.37076053  0.07415817  0.64232678    -0.06760
Co1682     Co  0.31789678  0.09929176  0.60109732     0.73820
N1683       N  0.25717621  0.08338392  0.63530284    -0.46950
C1684       C  0.36443314  0.20390897  0.63259400     0.42530
N1685       N  0.34733391  0.11292973  0.56262984    -0.46940
Co1686     Co  0.27549407  0.13115728  0.62676677     0.73890
C1687       C  0.26276158  0.18166924  0.61648368    -0.07270
C1688       C  0.33920068  0.14177842  0.70237278    -0.06830
N1689       N  0.36137272  0.12678691  0.59549921    -0.26360
N1690       N  0.28208051  0.14101341  0.69770534    -0.47120
H1691       H  0.33165905  0.21153024  0.65310735     0.06530
C1692       C  0.29112059  0.11889791  0.55841042    -0.07240
Cl1693     Cl  0.31750858  0.12971458  0.63035191    -0.50240
C1694       C  0.26210226  0.06097853  0.63128392     0.42290
H1695       H  0.39290927  0.14144330  0.58102448     0.06500
N1696       N  0.26445748  0.14081891  0.57669069    -0.46950
C1697       C  0.26194852  0.62644763  0.06371168     0.42140
N1698       N  0.28660493  0.61313050  0.08784510     0.01030
C1699       C  0.28799263  0.64006790  0.20425379    -0.06850
H1700       H  0.29166341  0.71091502  0.15034095     0.06520
C1701       C  0.36894514  0.68200051  0.11983494    -0.07200
Co1702     Co  0.27369658  0.62582706  0.13587015     0.74180
N1703       N  0.28898714  0.67405061  0.14435736    -0.26380
Co1704     Co  0.31592600  0.65785653  0.16134629     0.74070
C1705       C  0.35749639  0.70412896  0.12714252     0.42240
N1706       N  0.35493013  0.62468089  0.09307458     0.00640
N1707       N  0.33946275  0.67489051  0.14139303     0.00750
N1708       N  0.26156559  0.61813221  0.18588940    -0.47220
H1709       H  0.24100871  0.64422765  0.09263848     0.06510
N1710       N  0.27316388  0.66132635  0.13435514     0.01040
N1711       N  0.34232096  0.64170998  0.17801129     0.00780
C1712       C  0.36245904  0.63060686  0.20720458     0.42380
N1713       N  0.33723990  0.61289141  0.08481946    -0.25830
C1714       C  0.26068387  0.57544288  0.14814956    -0.06750
N1715       N  0.28117863  0.61315854  0.06553898    -0.46940
N1716       N  0.34393292  0.64277117  0.20066165    -0.47160
C1717       C  0.26868565  0.55245230  0.14108730     0.42150
N1718       N  0.27650458  0.62709491  0.17122351     0.01020
N1719       N  0.33992009  0.57948279  0.12041233    -0.25850
N1720       N  0.27171399  0.62481683  0.10051047    -0.26350
N1721       N  0.35741415  0.58969825  0.13092462     0.00660
H1722       H  0.33096673  0.54430066  0.11284261     0.06550
H1723       H  0.38788600  0.61072278  0.18269458     0.06590
N1724       N  0.29210586  0.64004253  0.18135323    -0.26400
N1725       N  0.35627912  0.66467434  0.12959083    -0.26010
N1726       N  0.28960257  0.57836036  0.12467199     0.01030
C1727       C  0.26074947  0.69597390  0.13017389     0.42420
C1728       C  0.33853350  0.61131121  0.06197694    -0.07260
N1729       N  0.35883391  0.62947392  0.16782825    -0.26010
H1730       H  0.38411905  0.67941961  0.10915359     0.06570
N1731       N  0.25612013  0.67367900  0.12568972    -0.47230
H1732       H  0.32651969  0.60189442  0.05125624     0.06560
C1733       C  0.36374300  0.55284893  0.13268026     0.42260
C1734       C  0.25580434  0.63423116  0.08685811    -0.06760
Co1735     Co  0.31339961  0.59585205  0.10424333     0.73820
N1736       N  0.36893120  0.63145618  0.07586157    -0.46950
C1737       C  0.26772825  0.62534123  0.20710486     0.42530
N1738       N  0.28647276  0.55568574  0.12619550    -0.46940
Co1739     Co  0.35820444  0.62715078  0.13034844     0.73890
C1740       C  0.37270937  0.62146665  0.18516398    -0.07270
C1741       C  0.28274709  0.69644211  0.14261094    -0.06830
N1742       N  0.27458165  0.59017742  0.13705999    -0.26360
N1743       N  0.33968541  0.69763352  0.14038682    -0.47120
H1744       H  0.29709944  0.65021594  0.21700832     0.06530
C1745       C  0.34253485  0.55670637  0.12063035    -0.07240
Cl1746     Cl  0.31551489  0.62664937  0.13293432    -0.50240
C1747       C  0.35942779  0.62325937  0.05575985     0.42290
H1748       H  0.24602961  0.58039435  0.15875247     0.06500
N1749       N  0.37242481  0.57392052  0.13902104    -0.46950
C1750       C  0.48270483  0.12530953  0.06345480     0.42140
N1751       N  0.45936672  0.14113227  0.08753167     0.01030
C1752       C  0.45866081  0.11949871  0.20523560    -0.06850
H1753       H  0.45234558  0.04726756  0.15570363     0.06520
C1754       C  0.37569601  0.07664057  0.12341982    -0.07200
Co1755     Co  0.47228410  0.13093877  0.13609816     0.74180
N1756       N  0.45588597  0.08359951  0.14727000    -0.26380
Co1757     Co  0.42933473  0.10128957  0.16351916     0.74070
C1758       C  0.38556797  0.05482121  0.13318715     0.42240
N1759       N  0.39050858  0.13282700  0.09324055     0.00640
N1760       N  0.40504305  0.08389758  0.14493499     0.00750
N1761       N  0.48499542  0.14042230  0.18545598    -0.47220
H1762       H  0.50452356  0.10973546  0.09325753     0.06510
N1763       N  0.47215569  0.09536827  0.13662193     0.01040
N1764       N  0.40341995  0.11882155  0.17930097     0.00780
C1765       C  0.38204895  0.12927641  0.20779958     0.42380
N1766       N  0.40912196  0.14278218  0.08453700    -0.25830
C1767       C  0.48573874  0.18160162  0.14581030    -0.06750
N1768       N  0.46386987  0.13911385  0.06513401    -0.46940
N1769       N  0.40112279  0.11769636  0.20188161    -0.47160
C1770       C  0.47834783  0.20410100  0.13706949     0.42150
N1771       N  0.46943813  0.13159481  0.17151647     0.01020
N1772       N  0.40717726  0.17794436  0.11830075    -0.25850
N1773       N  0.47439268  0.13012684  0.10056480    -0.26350
N1774       N  0.38973928  0.16905198  0.13012257     0.00660
H1775       H  0.41775176  0.21216084  0.10900115     0.06550
H1776       H  0.35651296  0.14796233  0.18264893     0.06590
N1777       N  0.45378619  0.11929507  0.18247251    -0.26400
N1778       N  0.38886286  0.09401368  0.13213252    -0.26010
N1779       N  0.45722141  0.17779785  0.12222886     0.01030
C1780       C  0.48380921  0.06029953  0.13487459     0.42420
C1781       C  0.40794004  0.14427359  0.06170919    -0.07260
N1782       N  0.38688795  0.13054996  0.16859013    -0.26010
H1783       H  0.36064748  0.07890928  0.11254963     0.06570
N1784       N  0.48912617  0.08216511  0.12900072    -0.47230
H1785       H  0.42074216  0.15263745  0.05096344     0.06560
C1786       C  0.38576315  0.20641328  0.13137880     0.42260
C1787       C  0.48983112  0.11955916  0.08704722    -0.06760
Co1788     Co  0.43318788  0.15989665  0.10297450     0.73820
N1789       N  0.37557497  0.12788526  0.07620773    -0.46950
C1790       C  0.47962902  0.13348864  0.20704553     0.42530
N1791       N  0.46088405  0.20040167  0.12214245    -0.46940
Co1792     Co  0.38764572  0.13160975  0.13099096     0.73890
C1793       C  0.37229209  0.13824790  0.18552919    -0.07270
C1794       C  0.46162175  0.06102479  0.14702941    -0.06830
N1795       N  0.47184841  0.16647690  0.13544683    -0.26360
N1796       N  0.40352894  0.06116861  0.14608009    -0.47120
H1797       H  0.44977281  0.10964823  0.21847424     0.06530
C1798       C  0.40572763  0.20077078  0.11771698    -0.07240
Cl1799     Cl  0.43038670  0.13089015  0.13335014    -0.50240
C1800       C  0.38566247  0.13518203  0.05583810     0.42290
H1801       H  0.50032038  0.17727315  0.15671812     0.06500
N1802       N  0.37627885  0.18593084  0.13882138    -0.46950
C1803       C  0.29837483  0.14335797  0.38397157     0.42140
N1804       N  0.32743832  0.16284263  0.37189408     0.01030
C1805       C  0.44446845  0.16448148  0.39604538    -0.06850
H1806       H  0.39737145  0.17704100  0.46405993     0.06520
C1807       C  0.36159253  0.24646728  0.43216563    -0.07200
Co1808     Co  0.37529370  0.14552850  0.38424295     0.74180
N1809       N  0.38694367  0.16603001  0.43064841    -0.26380
Co1810     Co  0.40301125  0.19126035  0.41248868     0.74070
C1811       C  0.36850115  0.23834485  0.45504918     0.42240
N1812       N  0.33655619  0.22979608  0.38178457     0.00640
N1813       N  0.38373641  0.21639019  0.42935264     0.00750
N1814       N  0.42920628  0.13409859  0.37668920    -0.47220
H1815       H  0.32268414  0.11671970  0.40218710     0.06510
N1816       N  0.37714659  0.14741109  0.42187098     0.01040
N1817       N  0.41962290  0.21664799  0.39375979     0.00780
C1818       C  0.44474014  0.24002642  0.38002530     0.42380
N1819       N  0.32582823  0.21318407  0.37071543    -0.25830
C1820       C  0.38112875  0.13169935  0.32919459    -0.06750
N1821       N  0.30473684  0.16186835  0.37177086    -0.46940
N1822       N  0.44199600  0.22133022  0.39379552    -0.47160
C1823       C  0.37191581  0.14224410  0.30731289     0.42150
N1824       N  0.41255832  0.14822422  0.38466271     0.01020
N1825       N  0.36176030  0.21321838  0.33509450    -0.25850
N1826       N  0.33768743  0.14595610  0.38365812    -0.26350
N1827       N  0.37236847  0.22987153  0.34623825     0.00660
H1828       H  0.35736726  0.20601200  0.29870881     0.06550
H1829       H  0.41666709  0.26190267  0.36205868     0.06590
N1830       N  0.42156193  0.16602692  0.39583483    -0.26400
N1831       N  0.37181888  0.23175081  0.41746553    -0.26010
N1832       N  0.36200007  0.16273341  0.33671917     0.01030
C1833       C  0.38075093  0.14155769  0.45900618     0.42420
C1834       C  0.30303609  0.21714097  0.37166645    -0.07260
N1835       N  0.40750329  0.23168958  0.38172433    -0.26010
H1836       H  0.35156425  0.26156531  0.42729801     0.06570
N1837       N  0.37308768  0.13184196  0.43868527    -0.47230
H1838       H  0.28985348  0.20716819  0.36301428     0.06560
C1839       C  0.37862898  0.23761282  0.31051926     0.42260
C1840       C  0.32035357  0.13229888  0.39199835    -0.06760
Co1841     Co  0.34420590  0.18784986  0.35353078     0.73820
N1842       N  0.32227206  0.24554278  0.39025096    -0.46950
C1843       C  0.44968546  0.14368403  0.38350328     0.42530
N1844       N  0.36051663  0.16113884  0.31412872    -0.46940
Co1845     Co  0.37202007  0.23122910  0.38179963     0.73890
C1846       C  0.42182353  0.24679483  0.37193030    -0.07270
C1847       C  0.38908151  0.16425330  0.45335383    -0.06830
N1848       N  0.37380235  0.14580959  0.34670266    -0.26360
N1849       N  0.38274055  0.22003056  0.45193011    -0.47120
H1850       H  0.45609471  0.17641329  0.40445438     0.06530
C1851       C  0.36453903  0.21666099  0.31226297    -0.07240
Cl1852     Cl  0.37363237  0.18874153  0.38304400    -0.50240
C1853       C  0.30080547  0.23839965  0.38493203     0.42290
H1854       H  0.39089067  0.11584783  0.33153188     0.06500
N1855       N  0.38243912  0.24489778  0.33230545    -0.46950
C1856       C  0.56066234  0.76104477  0.63282472     0.42140
N1857       N  0.58368981  0.78668862  0.61903102     0.01030
C1858       C  0.69972575  0.79595053  0.64363163    -0.06850
H1859       H  0.64354247  0.80150188  0.71509844     0.06520
C1860       C  0.61153992  0.87295225  0.68576319    -0.07200
Co1861     Co  0.63242062  0.77681646  0.63098359     0.74180
N1862       N  0.64035591  0.79460241  0.67847510    -0.26380
Co1863     Co  0.65567046  0.82199676  0.66131049     0.74070
C1864       C  0.62083458  0.86302396  0.70784245     0.42240
N1865       N  0.58390595  0.85540008  0.62985181     0.00640
N1866       N  0.63504332  0.84495843  0.67847005     0.00750
N1867       N  0.68294340  0.76770002  0.62273190    -0.47220
H1868       H  0.59149539  0.74078112  0.64883708     0.06510
N1869       N  0.63145690  0.77727430  0.66678295     0.01040
N1870       N  0.67027785  0.84901962  0.64398936     0.00780
C1871       C  0.69776841  0.87015770  0.63089403     0.42380
N1872       N  0.57696304  0.83709012  0.61809970    -0.25830
C1873       C  0.64409067  0.76350639  0.58042684    -0.06750
N1874       N  0.56166870  0.78056544  0.61986462    -0.46940
N1875       N  0.69285683  0.85185961  0.64405419    -0.47160
C1876       C  0.63575777  0.77057654  0.55763742     0.42150
N1877       N  0.66744846  0.78201773  0.63148527     0.01020
N1878       N  0.61181743  0.84145681  0.58361198    -0.25850
N1879       N  0.59719800  0.77222579  0.63026178    -0.26350
N1880       N  0.61949199  0.86073582  0.59307913     0.00660
H1881       H  0.60281007  0.83069164  0.54961484     0.06550
H1882       H  0.67148727  0.89303046  0.61044258     0.06590
N1883       N  0.67667283  0.79871589  0.64375429    -0.26400
N1884       N  0.62160408  0.86052786  0.66832902    -0.26010
N1885       N  0.61973800  0.79164557  0.58369528     0.01030
C1886       C  0.62523855  0.76864978  0.70224751     0.42420
C1887       C  0.55408245  0.83631398  0.61741915    -0.07260
N1888       N  0.65865629  0.86439940  0.63143627    -0.26010
H1889       H  0.59976421  0.88736780  0.68335422     0.06570
N1890       N  0.62244542  0.76120250  0.68033039    -0.47230
H1891       H  0.54434075  0.82383949  0.60756350     0.06560
C1892       C  0.61525655  0.86756638  0.55619093     0.42260
C1893       C  0.58442928  0.75534816  0.63945069    -0.06760
Co1894     Co  0.59802816  0.81426142  0.60103991     0.73820
N1895       N  0.56569675  0.86752867  0.63778261    -0.46950
C1896       C  0.70375128  0.77539416  0.62946895     0.42530
N1897       N  0.62035762  0.78785150  0.56112460    -0.46940
Co1898     Co  0.62086939  0.86161141  0.63071475     0.73890
C1899       C  0.67496876  0.87860093  0.62191730    -0.07270
C1900       C  0.63760565  0.79055645  0.70116890    -0.06830
N1901       N  0.63305499  0.77732337  0.59534183    -0.26360
N1902       N  0.63511166  0.84601477  0.70122621    -0.47120
H1903       H  0.71194584  0.80615666  0.65336243     0.06530
C1904       C  0.60972280  0.84378971  0.56092169    -0.07240
Cl1905     Cl  0.62670666  0.81889268  0.63098785    -0.50240
C1906       C  0.54625232  0.85587134  0.63085799     0.42290
H1907       H  0.65506111  0.74898436  0.58504263     0.06500
N1908       N  0.62172538  0.87731764  0.57689269    -0.46950
C1909       C  0.23255622  0.30900311  0.38667680     0.42140
N1910       N  0.21050336  0.33445537  0.37136887     0.01030
C1911       C  0.20752135  0.45093978  0.39558487    -0.06850
H1912       H  0.19938047  0.39889047  0.46750835     0.06520
C1913       C  0.12459498  0.36779738  0.43443478    -0.07200
Co1914     Co  0.22371647  0.38206176  0.38447323     0.74180
N1915       N  0.20493141  0.39141700  0.43124137    -0.26380
Co1916     Co  0.17919174  0.40839071  0.41284198     0.74070
C1917       C  0.13504150  0.37517408  0.45683243     0.42240
N1918       N  0.14181088  0.33988591  0.37780037     0.00640
N1919       N  0.15453153  0.38890475  0.42847488     0.00750
N1920       N  0.23617416  0.43226436  0.37648646    -0.47220
H1921       H  0.25464340  0.33673431  0.40448234     0.06510
N1922       N  0.22185098  0.38102140  0.42005544     0.01040
N1923       N  0.15409239  0.42505567  0.39457750     0.00780
C1924       C  0.13534122  0.45417252  0.38117845     0.42380
N1925       N  0.16039948  0.33158107  0.36729775    -0.25830
C1926       C  0.23958158  0.39392109  0.33485582    -0.06750
N1927       N  0.21459120  0.31193038  0.37217966    -0.46940
N1928       N  0.15292120  0.44778388  0.39462315    -0.47160
C1929       C  0.23303538  0.38658125  0.31166358     0.42150
N1930       N  0.22118528  0.41760580  0.38535057     0.01020
N1931       N  0.16023099  0.36718436  0.33353135    -0.25850
N1932       N  0.22528248  0.34646962  0.38365420    -0.26350
N1933       N  0.14190010  0.37770668  0.34244030     0.00660
H1934       H  0.17192198  0.35943735  0.29909739     0.06550
H1935       H  0.11058370  0.42990212  0.36090072     0.06590
N1936       N  0.20428208  0.42796496  0.39654546    -0.26400
N1937       N  0.13824885  0.37715398  0.41757279    -0.26010
N1938       N  0.21032649  0.37103306  0.33636682     0.01030
C1939       C  0.23132717  0.37792074  0.45573315     0.42420
C1940       C  0.15928269  0.30874841  0.36533458    -0.07260
N1941       N  0.13818949  0.41486254  0.38175372    -0.26010
H1942       H  0.10950441  0.35720768  0.43154032     0.06570
N1943       N  0.23810576  0.37303939  0.43393251    -0.47230
H1944       H  0.17218217  0.29809330  0.35688060     0.06560
C1945       C  0.13857777  0.37977097  0.30507831     0.42260
C1946       C  0.24004832  0.33189211  0.39389751    -0.06760
Co1947     Co  0.18539570  0.35095097  0.35208102     0.73820
N1948       N  0.12727163  0.32265619  0.38318630    -0.46950
C1949       C  0.22873986  0.45375764  0.38194711     0.42530
N1950       N  0.21491686  0.37218260  0.31394785    -0.46940
Co1951     Co  0.13866127  0.37740248  0.37992657     0.73890
C1952       C  0.12506148  0.43221435  0.37247279    -0.07270
C1953       C  0.20938586  0.39049235  0.45403487    -0.06830
N1954       N  0.22479492  0.38313771  0.34890967    -0.26360
N1955       N  0.15320581  0.38807990  0.45117156    -0.47120
H1956       H  0.19646854  0.46365867  0.40376115     0.06530
C1957       C  0.15940946  0.36740152  0.31059555    -0.07240
Cl1958     Cl  0.18153273  0.37966289  0.38234039    -0.50240
C1959       C  0.13735836  0.30252782  0.37528730     0.42290
H1960       H  0.25417335  0.40421774  0.34027278     0.06500
N1961       N  0.12805915  0.38570540  0.32558102    -0.46950
C1962       C  0.54764868  0.62889834  0.86718459     0.42140
N1963       N  0.57676584  0.61651939  0.84773309     0.01030
C1964       C  0.69467792  0.63929430  0.84863019    -0.06850
H1965       H  0.64603949  0.70891687  0.83136127     0.06520
C1966       C  0.61682289  0.67303541  0.76181353    -0.07200
Co1967     Co  0.62430068  0.62924824  0.86516519     0.74180
N1968       N  0.63742718  0.67493429  0.84347621    -0.26380
Co1969     Co  0.65488155  0.65530549  0.81972540     0.74070
C1970       C  0.62438642  0.69606792  0.76875004     0.42240
N1971       N  0.58927216  0.62418036  0.78056154     0.00640
N1972       N  0.63727935  0.67120719  0.79297152     0.00750
N1973       N  0.67759823  0.62100785  0.87886666    -0.47220
H1974       H  0.57179070  0.64880401  0.89233053     0.06510
N1975       N  0.62536407  0.66665788  0.86111356     0.01040
N1976       N  0.67222179  0.63482528  0.79578530     0.00780
C1977       C  0.69768982  0.61990794  0.77316470     0.42380
N1978       N  0.57730769  0.61409970  0.79712494    -0.25830
C1979       C  0.63238364  0.57476071  0.87997206    -0.06750
N1980       N  0.55405333  0.61604911  0.84906961    -0.46940
N1981       N  0.69468154  0.63451734  0.79120279    -0.47160
C1982       C  0.62416401  0.55237336  0.87001004     0.42150
N1983       N  0.66176375  0.62922182  0.86403061     0.01020
N1984       N  0.61197999  0.57764943  0.79985517    -0.25850
N1985       N  0.58685612  0.62896168  0.86400749    -0.26350
N1986       N  0.62408321  0.58754709  0.78331735     0.00660
H1987       H  0.60363115  0.54200602  0.80725873     0.06550
H1988       H  0.66987033  0.60116899  0.75206317     0.06590
N1989       N  0.67185471  0.63963133  0.84629150    -0.26400
N1990       N  0.62577126  0.65883453  0.77782175    -0.26010
N1991       N  0.61114989  0.58107135  0.85013675     0.01030
C1992       C  0.62261203  0.70419299  0.86291525     0.42420
C1993       C  0.55476511  0.61552391  0.79197011    -0.07260
N1994       N  0.66033723  0.62213433  0.78123314    -0.26010
H1995       H  0.60714793  0.66774358  0.74673226     0.06570
N1996       N  0.61608874  0.68397247  0.87358651    -0.47230
H1997       H  0.54079465  0.60768965  0.80166383     0.06560
C1998       C  0.62744541  0.55128805  0.77667780     0.42260
C1999       C  0.56950489  0.63804507  0.87719880    -0.06760
Co2000     Co  0.59415682  0.59730978  0.82386035     0.73820
N2001       N  0.57613776  0.63245620  0.76384857    -0.46950
C2002       C  0.69865710  0.62721144  0.86994506     0.42530
N2003       N  0.61123703  0.55837573  0.85184206    -0.46940
Co2004     Co  0.62485794  0.62312834  0.78031455     0.73890
C2005       C  0.67486772  0.61146003  0.76685655    -0.07270
C2006       C  0.63698903  0.69791628  0.84352124    -0.06830
N2007       N  0.62324889  0.59173775  0.86627994    -0.26360
N2008       N  0.63715611  0.69358290  0.78807295    -0.47120
H2009       H  0.70702261  0.64687401  0.83675161     0.06530
C2010       C  0.61282246  0.55467552  0.79698904    -0.07240
Cl2011     Cl  0.62452967  0.62629959  0.82245603    -0.50240
C2012       C  0.55417315  0.62776645  0.76989061     0.42290
H2013       H  0.64348879  0.57763751  0.89471256     0.06500
N2014       N  0.63337917  0.57244200  0.76881483    -0.46950
C2015       C  0.30457688  0.37721686  0.52180975     0.42140
N2016       N  0.32919380  0.38998797  0.54609342     0.01030
C2017       C  0.44623968  0.36814131  0.54899161    -0.06850
H2018       H  0.39348933  0.29420698  0.55868651     0.06520
C2019       C  0.36384246  0.32505112  0.63144492    -0.07200
Co2020     Co  0.37713531  0.37710378  0.53290683     0.74180
N2021       N  0.38745256  0.33041226  0.55143100    -0.26380
Co2022     Co  0.40426880  0.34847973  0.57709846     0.74070
C2023       C  0.37249277  0.30288963  0.62125937     0.42240
N2024       N  0.33467662  0.38096062  0.61465955     0.00640
N2025       N  0.38552058  0.33172010  0.60188982     0.00750
N2026       N  0.42698115  0.38692855  0.52055791    -0.47220
H2027       H  0.33283087  0.35859029  0.50064372     0.06510
N2028       N  0.37682899  0.34135283  0.53449859     0.01040
N2029       N  0.42049986  0.36636424  0.60249042     0.00780
C2030       C  0.44943026  0.37881172  0.62195216     0.42380
N2031       N  0.32633833  0.39237906  0.59662973    -0.25830
C2032       C  0.38773851  0.42730827  0.51752581    -0.06750
N2033       N  0.30695259  0.39057946  0.54076171    -0.46940
N2034       N  0.44316491  0.36598791  0.60390888    -0.47160
C2035       C  0.37976525  0.45028015  0.52438428     0.42150
N2036       N  0.41264464  0.37681460  0.53517096     0.01020
N2037       N  0.36107683  0.42677917  0.59753799    -0.25850
N2038       N  0.34153632  0.37773062  0.53133503    -0.26350
N2039       N  0.37172352  0.41764471  0.61564728     0.00660
H2040       H  0.35308035  0.46135518  0.58631419     0.06550
H2041       H  0.42464810  0.39876758  0.64699620     0.06590
N2042       N  0.42332539  0.36579224  0.55199572    -0.26400
N2043       N  0.37304800  0.34222114  0.61807501    -0.26010
N2044       N  0.36511509  0.42505221  0.54713693     0.01030
C2045       C  0.37274123  0.30550115  0.52661925     0.42420
C2046       C  0.30345906  0.39270856  0.59705836    -0.07260
N2047       N  0.40999598  0.37876546  0.61869850    -0.26010
H2048       H  0.35273936  0.32761091  0.64634429     0.06570
N2049       N  0.36794192  0.32709874  0.51905854    -0.47230
H2050       H  0.29251607  0.40141495  0.58457677     0.06560
C2051       C  0.37336449  0.45507455  0.61947509     0.42260
C2052       C  0.32746611  0.36863136  0.51554030    -0.06760
Co2053     Co  0.34533973  0.40863575  0.57194395     0.73820
N2054       N  0.31730995  0.37271647  0.62776418    -0.46950
C2055       C  0.44852059  0.38261544  0.52829582     0.42530
N2056       N  0.36555271  0.44752952  0.54270041    -0.46940
Co2057     Co  0.37229780  0.37992317  0.61814588     0.73890
C2058       C  0.42720531  0.38763715  0.63214430    -0.07270
C2059       C  0.38588051  0.30757613  0.54795327    -0.06830
N2060       N  0.37744482  0.41285848  0.53232936    -0.26360
N2061       N  0.38558903  0.30894535  0.60323655    -0.47120
H2062       H  0.45952644  0.36063379  0.55984432     0.06530
C2063       C  0.36104414  0.44972211  0.59868641    -0.07240
Cl2064     Cl  0.37472509  0.37852978  0.57524021    -0.50240
C2065       C  0.29708779  0.37972475  0.61727700     0.42290
H2066       H  0.39816204  0.42225249  0.50277183     0.06500
N2067       N  0.37963913  0.43441440  0.62959305    -0.46950
C2068       C  0.38763164  0.70469409  0.63148587     0.42140
N2069       N  0.40690626  0.67532867  0.61953715     0.01030
C2070       C  0.40380026  0.55809325  0.64793815    -0.06850
H2071       H  0.41884341  0.60888445  0.71489518     0.06520
C2072       C  0.49026403  0.63704909  0.67810545    -0.07200
Co2073     Co  0.38827944  0.62825017  0.63303359     0.74180
N2074       N  0.40850552  0.61664093  0.68000730    -0.26380
Co2075     Co  0.43273840  0.59836215  0.66196429     0.74070
C2076       C  0.48328256  0.63084425  0.70151651     0.42240
N2077       N  0.47394960  0.66198365  0.62818038     0.00640
N2078       N  0.45919148  0.61662357  0.67748095     0.00750
N2079       N  0.37479673  0.57414311  0.62704063    -0.47220
H2080       H  0.36167782  0.68110451  0.65108033     0.06510
N2081       N  0.39105824  0.62811608  0.67053731     0.01040
N2082       N  0.45686784  0.57964520  0.64308404     0.00780
C2083       C  0.47815104  0.55239600  0.62947568     0.42380
N2084       N  0.45775187  0.67394854  0.61762309    -0.25830
C2085       C  0.37295019  0.62363083  0.57803775    -0.06750
N2086       N  0.40597744  0.69814698  0.61896748    -0.46940
N2087       N  0.46008808  0.55693436  0.64360467    -0.47160
C2088       C  0.38352968  0.63265359  0.55606919     0.42150
N2089       N  0.38933889  0.59047567  0.63463943     0.01020
N2090       N  0.45527745  0.63787961  0.58276072    -0.25850
N2091       N  0.39011044  0.66558511  0.63174207    -0.26350
N2092       N  0.47090305  0.62537389  0.59361365     0.00660
H2093       H  0.45041889  0.64660559  0.54671496     0.06550
H2094       H  0.50182791  0.57834837  0.61074660     0.06590
N2095       N  0.40645210  0.58088440  0.64652371    -0.26400
N2096       N  0.47453789  0.62729675  0.66453213    -0.26010
N2097       N  0.40526378  0.64018603  0.58508130     0.01030
C2098       C  0.38684309  0.63096298  0.70775524     0.42420
C2099       C  0.46302808  0.69653048  0.61851625    -0.07260
N2100       N  0.47232480  0.59039280  0.63031593    -0.26010
H2101       H  0.50557206  0.64606630  0.67225900     0.06570
N2102       N  0.37737741  0.63728804  0.68692983    -0.47230
H2103       H  0.45300904  0.71018173  0.61051849     0.06560
C2104       C  0.47995170  0.62218610  0.55784406     0.42260
C2105       C  0.37694955  0.68311941  0.64041481    -0.06760
Co2106     Co  0.43119876  0.65692099  0.60129522     0.73820
N2107       N  0.49044348  0.67519803  0.63654787    -0.46950
C2108       C  0.38305915  0.55339535  0.63537664     0.42530
N2109       N  0.40332299  0.64218870  0.56255880    -0.46940
Co2110     Co  0.47326460  0.62618793  0.62907319     0.73890
C2111       C  0.48662386  0.57463161  0.62104020    -0.07270
C2112       C  0.40714213  0.61737636  0.70296656    -0.06830
N2113       N  0.38790972  0.62939061  0.59535473    -0.26360
N2114       N  0.46409336  0.61774075  0.69983602    -0.47120
H2115       H  0.41518105  0.54618215  0.65691476     0.06530
C2116       C  0.45948724  0.63689671  0.55994537    -0.07240
Cl2117     Cl  0.43091576  0.62737400  0.63134172    -0.50240
C2118       C  0.48483148  0.69733770  0.63137479     0.42290
H2119       H  0.35633036  0.61545375  0.58048138     0.06500
N2120       N  0.48608496  0.61586087  0.57944721    -0.46950
C2121       C  0.68980588  0.49110570  0.63306236     0.42140
N2122       N  0.66591208  0.46560718  0.62108187     0.01030
C2123       C  0.54942414  0.45942369  0.64670772    -0.06850
H2124       H  0.60390041  0.45019754  0.71749930     0.06520
C2125       C  0.63617450  0.37919829  0.68590446    -0.07200
Co2126     Co  0.61759697  0.47693251  0.63455031     0.74180
N2127       N  0.60892823  0.45790684  0.68127623    -0.26380
Co2128     Co  0.59281787  0.43163918  0.66338372     0.74070
C2129       C  0.62764320  0.38899629  0.70830368     0.42240
N2130       N  0.66327501  0.39663371  0.63030426     0.00640
N2131       N  0.61279184  0.40755329  0.67969817     0.00750
N2132       N  0.56699848  0.48882145  0.62786487    -0.47220
H2133       H  0.66076610  0.51149310  0.65153337     0.06510
N2134       N  0.61862952  0.47532954  0.67026712     0.01040
N2135       N  0.57741832  0.40571022  0.64546183     0.00780
C2136       C  0.54931579  0.38556853  0.63248173     0.42380
N2137       N  0.67104695  0.41508678  0.61914811    -0.25830
C2138       C  0.60527239  0.49138297  0.58459162    -0.06750
N2139       N  0.68791450  0.47180726  0.62008143    -0.46940
N2140       N  0.55480339  0.40341618  0.64590756    -0.47160
C2141       C  0.61310952  0.48480510  0.56144426     0.42150
N2142       N  0.58214881  0.47349340  0.63559883     0.01020
N2143       N  0.63572306  0.41289460  0.58479154    -0.25850
N2144       N  0.65313736  0.48003327  0.63326749    -0.26350
N2145       N  0.62739256  0.39365215  0.59385509     0.00660
H2146       H  0.64471204  0.42438599  0.55092963     0.06550
H2147       H  0.57486209  0.36200349  0.61178784     0.06590
N2148       N  0.57243634  0.45622895  0.64679805    -0.26400
N2149       N  0.62582809  0.39200528  0.66897899    -0.26010
N2150       N  0.62928015  0.46285498  0.58659659     0.01030
C2151       C  0.62301285  0.48315499  0.70604954     0.42420
C2152       C  0.69402652  0.41528505  0.61918917    -0.07260
N2153       N  0.58851097  0.39021304  0.63259082    -0.26010
H2154       H  0.64785970  0.36478609  0.68301643     0.06570
N2155       N  0.62713313  0.49105739  0.68445365    -0.47230
H2156       H  0.70484241  0.42812898  0.61092753     0.06560
C2157       C  0.63101699  0.38775413  0.55671153     0.42260
C2158       C  0.66667224  0.49660035  0.64177654    -0.06760
Co2159     Co  0.65052690  0.43909231  0.60282638     0.73820
N2160       N  0.68081969  0.38370502  0.63834818    -0.46950
C2161       C  0.54592102  0.48087806  0.63372352     0.42530
N2162       N  0.62813121  0.46707139  0.56411109    -0.46940
Co2163     Co  0.62622393  0.39180101  0.63143475     0.73890
C2164       C  0.57181323  0.37651306  0.62324742    -0.07270
C2165       C  0.61077619  0.46131664  0.70407920    -0.06830
N2166       N  0.61654071  0.47719650  0.59890829    -0.26360
N2167       N  0.61327494  0.40617195  0.70244428    -0.47120
H2168       H  0.53689650  0.44885766  0.65574564     0.06530
C2169       C  0.63750284  0.41116901  0.56199550    -0.07240
Cl2170     Cl  0.62181609  0.43466786  0.63302769    -0.50240
C2171       C  0.70066271  0.39489480  0.63191608     0.42290
H2172       H  0.59447292  0.50583676  0.58980047     0.06500
N2173       N  0.62439069  0.37766482  0.57728663    -0.46950
C2174       C  0.29694419  0.61441571  0.38163669     0.42140
N2175       N  0.32632023  0.59547967  0.39415671     0.01030
C2176       C  0.44327539  0.59598059  0.36727514    -0.06850
H2177       H  0.39573822  0.58038594  0.30091049     0.06520
C2178       C  0.36348150  0.51028783  0.33666483    -0.07200
Co2179     Co  0.37356208  0.61313225  0.38079261     0.74180
N2180       N  0.38573534  0.59154508  0.33478927    -0.26380
Co2181     Co  0.40286453  0.56734169  0.35367070     0.74070
C2182       C  0.36924804  0.51826384  0.31331691     0.42240
N2183       N  0.33779139  0.52807761  0.38678653     0.00640
N2184       N  0.38437979  0.54110330  0.33807624     0.00750
N2185       N  0.42743253  0.62635740  0.38641867    -0.47220
H2186       H  0.32080756  0.64016048  0.36183431     0.06510
N2187       N  0.37464908  0.60970041  0.34334194     0.01040
N2188       N  0.42058817  0.54318288  0.37330922     0.00780
C2189       C  0.44696271  0.52159379  0.38797276     0.42380
N2190       N  0.32648232  0.54498682  0.39705872    -0.25830
C2191       C  0.37820615  0.62952972  0.43539106    -0.06750
N2192       N  0.30360205  0.59638848  0.39450979    -0.46940
N2193       N  0.44321557  0.53961431  0.37354163    -0.47160
C2194       C  0.36862117  0.61983963  0.45750323     0.42150
N2195       N  0.41109350  0.61141248  0.37977675     0.01020
N2196       N  0.36213359  0.54719090  0.43236341    -0.25850
N2197       N  0.33619147  0.61198985  0.38169194    -0.26350
N2198       N  0.37388607  0.53070338  0.42188811     0.00660
H2199       H  0.35448420  0.55379449  0.46839715     0.06550
H2200       H  0.42002624  0.49896201  0.40664366     0.06590
N2201       N  0.42053441  0.59358265  0.36884397    -0.26400
N2202       N  0.37335079  0.52571222  0.35069369    -0.26010
N2203       N  0.36078419  0.59748814  0.42903435     0.01030
C2204       C  0.37516636  0.61388284  0.30592716     0.42420
C2205       C  0.30376577  0.54095747  0.39569611    -0.07260
N2206       N  0.40921448  0.52808474  0.38595414    -0.26010
H2207       H  0.35431875  0.49506520  0.34242381     0.06570
N2208       N  0.36779756  0.62388045  0.32623606    -0.47230
H2209       H  0.29028827  0.55168361  0.40313711     0.06560
C2210       C  0.37784974  0.52317397  0.45797188     0.42260
C2211       C  0.31869110  0.62508313  0.37278133    -0.06760
Co2212     Co  0.34390140  0.57140480  0.41316985     0.73820
N2213       N  0.32388607  0.51218268  0.37824345    -0.46950
C2214       C  0.44811541  0.61746376  0.37865162     0.42530
N2215       N  0.35859403  0.60011724  0.45149012    -0.46940
Co2216     Co  0.37357739  0.52763638  0.38637585     0.73890
C2217       C  0.42435295  0.51384772  0.39609971    -0.07270
C2218       C  0.38675606  0.59265350  0.31190013    -0.06830
N2219       N  0.37204846  0.61433798  0.41841694    -0.26360
N2220       N  0.38275953  0.53708269  0.31560191    -0.47120
H2221       H  0.45497087  0.58409825  0.35864437     0.06530
C2222       C  0.36347348  0.54383864  0.45530950    -0.07240
Cl2223     Cl  0.37349079  0.57009296  0.38349484    -0.50240
C2224       C  0.30208645  0.51924717  0.38296072     0.42290
H2225       H  0.38697637  0.64581171  0.43261433     0.06500
N2226       N  0.38328165  0.51584654  0.43647551    -0.46950
C2227       C  0.54738485  0.12792404  0.89640313     0.42140
N2228       N  0.57616415  0.14043845  0.91587283     0.01030
C2229       C  0.69393462  0.11380924  0.91756452    -0.06850
H2230       H  0.64705204  0.04814076  0.93379458     0.06520
C2231       C  0.61323174  0.08471779  0.00339499    -0.07200
Co2232     Co  0.62445674  0.12717066  0.89925491     0.74180
N2233       N  0.63640465  0.08154423  0.92194282    -0.26380
Co2234     Co  0.65280357  0.10093797  0.94609579     0.74070
C2235       C  0.61999216  0.06127124  0.99644039     0.42240
N2236       N  0.58702313  0.13400915  0.98349439     0.00640
N2237       N  0.63409981  0.08571407  0.97240611     0.00750
N2238       N  0.67867605  0.13246163  0.88663278    -0.47220
H2239       H  0.57201957  0.10816673  0.87121406     0.06510
N2240       N  0.62591797  0.08970448  0.90329032     0.01040
N2241       N  0.66970943  0.12104304  0.97016245     0.00780
C2242       C  0.69483204  0.13460410  0.99352644     0.42380
N2243       N  0.57520596  0.14368467  0.96663394    -0.25830
C2244       C  0.63241202  0.18170794  0.88429459    -0.06750
N2245       N  0.55344868  0.14085432  0.91444275    -0.46940
N2246       N  0.69191108  0.12009359  0.97549568    -0.47160
C2247       C  0.62336992  0.20401217  0.89381916     0.42150
N2248       N  0.66203182  0.12623600  0.90158374     0.01020
N2249       N  0.61020045  0.17981943  0.96384911    -0.25850
N2250       N  0.58667081  0.12796331  0.89966407    -0.26350
N2251       N  0.62184290  0.16994757  0.98070897     0.00660
H2252       H  0.60292933  0.21538697  0.95515076     0.06550
H2253       H  0.66726546  0.15570070  0.01313771     0.06590
N2254       N  0.67112528  0.11562488  0.91976735    -0.26400
N2255       N  0.62272888  0.09858150  0.98738887    -0.26010
N2256       N  0.61038751  0.17560588  0.91370434     0.01030
C2257       C  0.62799879  0.05224311  0.89937862     0.42420
C2258       C  0.55253807  0.14136794  0.97126444    -0.07260
N2259       N  0.65786404  0.13458112  0.98412139    -0.26010
H2260       H  0.60362300  0.09049707  0.01841031     0.06570
N2261       N  0.62048915  0.07233144  0.88894154    -0.47230
H2262       H  0.53853522  0.14807410  0.96079549     0.06560
C2263       C  0.62487632  0.20632529  0.98733761     0.42260
C2264       C  0.56949280  0.11903477  0.88626203    -0.06760
Co2265     Co  0.59282923  0.15989464  0.93987587     0.73820
N2266       N  0.57380777  0.12497155  0.99966887    -0.46950
C2267       C  0.69917098  0.12466875  0.89583591     0.42530
N2268       N  0.61009399  0.19828780  0.91175897    -0.46940
Co2269     Co  0.62240850  0.13441458  0.98423464     0.73890
C2270       C  0.67232285  0.14474278  0.99878948    -0.07270
C2271       C  0.63815365  0.05868360  0.92111140    -0.06830
N2272       N  0.62317237  0.16479318  0.89796807    -0.26360
N2273       N  0.63329446  0.06335127  0.97734223    -0.47120
H2274       H  0.70542521  0.10527787  0.92967190     0.06530
C2275       C  0.61123380  0.20286408  0.96635152    -0.07240
Cl2276     Cl  0.62311516  0.13054244  0.94188058    -0.50240
C2277       C  0.55179222  0.12859951  0.99323615     0.42290
H2278       H  0.64390198  0.17890098  0.86973601     0.06500
N2279       N  0.63073522  0.18507653  0.99523178    -0.46950
C2280       C  0.19004129  0.99233386  0.63381963     0.42140
N2281       N  0.16652130  0.96748117  0.61972406     0.01030
C2282       C  0.04953713  0.96211180  0.64244681    -0.06850
H2283       H  0.10397721  0.95523713  0.71574805     0.06520
C2284       C  0.13487847  0.88249769  0.68531601    -0.07200
Co2285     Co  0.11796341  0.97954812  0.63183344     0.74180
N2286       N  0.10865870  0.96192325  0.67921738    -0.26380
Co2287     Co  0.09238393  0.93542041  0.66183976     0.74070
C2288       C  0.12614779  0.89235406  0.70755382     0.42240
N2289       N  0.16230098  0.89861848  0.62952899     0.00640
N2290       N  0.11202260  0.91129395  0.67881557     0.00750
N2291       N  0.06752536  0.99046530  0.62245367    -0.47220
H2292       H  0.15989158  0.01209937  0.65153592     0.06510
N2293       N  0.11841967  0.97892543  0.66766938     0.01040
N2294       N  0.07651951  0.90926609  0.64466845     0.00780
C2295       C  0.04823861  0.88865895  0.63289837     0.42380
N2296       N  0.17081117  0.91655356  0.61807908    -0.25830
C2297       C  0.10738892  0.99389068  0.58109063    -0.06750
N2298       N  0.18867937  0.97326031  0.62030361    -0.46940
N2299       N  0.05389169  0.90708617  0.64543367    -0.47160
C2300       C  0.11502725  0.98616568  0.55821341     0.42150
N2301       N  0.08251745  0.97625874  0.63227865     0.01020
N2302       N  0.13617887  0.91436652  0.58364829    -0.25850
N2303       N  0.15335815  0.98192265  0.63144871    -0.26350
N2304       N  0.12564907  0.89644302  0.59326999     0.00660
H2305       H  0.14514675  0.92393822  0.54879760     0.06550
H2306       H  0.07340403  0.86430460  0.61272064     0.06590
N2307       N  0.07254179  0.95957856  0.64410577    -0.26400
N2308       N  0.12482708  0.89539843  0.66829112    -0.26010
N2309       N  0.13070019  0.96478724  0.58423137     0.01030
C2310       C  0.12370512  0.98753734  0.70328519     0.42420
C2311       C  0.19377151  0.91543374  0.61737319    -0.07260
N2312       N  0.08737972  0.89329721  0.63222744    -0.26010
H2313       H  0.14628359  0.86783420  0.68258364     0.06570
N2314       N  0.12737872  0.99480749  0.68137519    -0.47230
H2315       H  0.20495369  0.92760709  0.60858506     0.06560
C2316       C  0.12582966  0.89046034  0.55624424     0.42260
C2317       C  0.16650776  0.99789749  0.64127856    -0.06760
Co2318     Co  0.15123069  0.94082114  0.60132920     0.73820
N2319       N  0.17934866  0.88494618  0.63734821    -0.46950
C2320       C  0.04630455  0.98242214  0.62764470     0.42530
N2321       N  0.12989188  0.96838347  0.56160409    -0.46940
Co2322     Co  0.12503292  0.89464942  0.63078844     0.73890
C2323       C  0.07054044  0.87924624  0.62365791    -0.07270
C2324       C  0.11084388  0.96591299  0.70195691    -0.06830
N2325       N  0.11790785  0.97958018  0.59598614    -0.26360
N2326       N  0.11222930  0.90990969  0.70157767    -0.47120
H2327       H  0.03673209  0.95134037  0.65081714     0.06530
C2328       C  0.13706366  0.91202605  0.56079282    -0.07240
Cl2329     Cl  0.12169160  0.93718888  0.63138735    -0.50240
C2330       C  0.19963961  0.89468609  0.62994878     0.42290
H2331       H  0.09681176  0.00865468  0.58580530     0.06500
N2332       N  0.11867956  0.88147968  0.57704265    -0.46950
C2333       C  0.12326605  0.69827527  0.99261003     0.42140
N2334       N  0.11010171  0.67327942  0.96889160     0.01030
C2335       C  0.13440688  0.55636168  0.96644911    -0.06850
H2336       H  0.20649407  0.60693148  0.96108029     0.06520
C2337       C  0.17629598  0.63882324  0.88430891    -0.07200
Co2338     Co  0.12308095  0.62531032  0.98210411     0.74180
N2339       N  0.17023514  0.61548648  0.96469391    -0.26380
Co2340     Co  0.15274106  0.59860674  0.93862715     0.74070
C2341       C  0.19840713  0.63084750  0.89513576     0.42240
N2342       N  0.11942150  0.66738430  0.90039653     0.00640
N2343       N  0.16943350  0.61763522  0.91413874     0.00750
N2344       N  0.11513257  0.57494894  0.99501103    -0.47220
H2345       H  0.14076575  0.67006509  0.01475220     0.06510
N2346       N  0.15847456  0.62645483  0.98080955     0.01040
N2347       N  0.13540068  0.58201015  0.91307531     0.00780
C2348       C  0.12363303  0.55265142  0.89376415     0.42380
N2349       N  0.10791174  0.67592140  0.91834696    -0.25830
C2350       C  0.07359608  0.61383221  0.99761328    -0.06750
N2351       N  0.10987256  0.69567626  0.97374324    -0.46940
N2352       N  0.13613338  0.55931056  0.91185657    -0.47160
C2353       C  0.05062022  0.62244349  0.99192769     0.42150
N2354       N  0.12415002  0.58966958  0.98003862     0.01020
N2355       N  0.07409017  0.64061060  0.91766079    -0.25850
N2356       N  0.12201487  0.66100042  0.98391047    -0.26350
N2357       N  0.08343258  0.63020098  0.89945147     0.00660
H2358       H  0.03950932  0.64894359  0.92848123     0.06550
H2359       H  0.10397111  0.57688470  0.86803507     0.06590
N2360       N  0.13557904  0.57931611  0.96331608    -0.26400
N2361       N  0.15900625  0.62964669  0.89756965    -0.26010
N2362       N  0.07526123  0.63695124  0.96829409     0.01030
C2363       C  0.19351774  0.62846729  0.99216208     0.42420
C2364       C  0.10705128  0.69888595  0.91729354    -0.07260
N2365       N  0.12303353  0.59216926  0.89665668    -0.26010
H2366       H  0.17386523  0.64959228  0.86914847     0.06570
N2367       N  0.17165502  0.63456992  0.99738322    -0.47230
H2368       H  0.09825004  0.71013345  0.92946240     0.06560
C2369       C  0.04614428  0.62945793  0.89490708     0.42260
C2370       C  0.13104084  0.67526275  0.99961273    -0.06760
Co2371     Co  0.09173579  0.65679565  0.94325892     0.73820
N2372       N  0.12700290  0.68453144  0.88667456    -0.46950
C2373       C  0.12072816  0.55346068  0.98762046     0.42530
N2374       N  0.05296745  0.63687692  0.97362276    -0.46940
Co2375     Co  0.12119827  0.62987309  0.89706711     0.73890
C2376       C  0.11477637  0.57466066  0.88314536    -0.07270
C2377       C  0.19276494  0.61588201  0.97023119    -0.06830
N2378       N  0.08763194  0.62429964  0.98260320    -0.26360
N2379       N  0.19218126  0.61794324  0.91324013    -0.47120
H2380       H  0.14258100  0.54366305  0.95540031     0.06530
C2381       C  0.05121575  0.64087455  0.91622957    -0.07240
Cl2382     Cl  0.12214628  0.62770182  0.93976576    -0.50240
C2383       C  0.11940819  0.70476550  0.89660256     0.42290
H2384       H  0.07905672  0.60338899  0.01220675     0.06500
N2385       N  0.06682429  0.62295053  0.88500467    -0.46950
C2386       C  0.88648985  0.55257684  0.13441115     0.42140
N2387       N  0.90596302  0.58185808  0.14565859     0.01030
C2388       C  0.90391795  0.69924769  0.11838238    -0.06850
H2389       H  0.92086713  0.64950551  0.05112408     0.06520
C2390       C  0.99078673  0.62120156  0.08779538    -0.07200
Co2391     Co  0.88768803  0.62931857  0.13154611     0.74180
N2392       N  0.90899419  0.64104704  0.08524675    -0.26380
Co2393     Co  0.93245306  0.65910451  0.10385196     0.74070
C2394       C  0.98346589  0.62698673  0.06437357     0.42240
N2395       N  0.97283792  0.59563035  0.13745921     0.00640
N2396       N  0.95921220  0.64111240  0.08848136     0.00750
N2397       N  0.87410148  0.68345878  0.13825374    -0.47220
H2398       H  0.86113114  0.57629090  0.11397097     0.06510
N2399       N  0.89115098  0.62967603  0.09388679     0.01040
N2400       N  0.95602002  0.67762254  0.12326100     0.00780
C2401       C  0.97710765  0.70436093  0.13746732     0.42380
N2402       N  0.95696037  0.58307771  0.14779290    -0.25830
C2403       C  0.87288568  0.63784683  0.18588573    -0.06750
N2404       N  0.90469797  0.55909625  0.14689487    -0.46940
N2405       N  0.95951445  0.70025488  0.12278154    -0.47160
C2406       C  0.88209912  0.62886193  0.20827238     0.42150
N2407       N  0.88847113  0.66697087  0.13022399     0.01020
N2408       N  0.95355380  0.61871333  0.18320413    -0.25850
N2409       N  0.88950797  0.59174143  0.13305124    -0.26350
N2410       N  0.96917846  0.63133007  0.17253536     0.00660
H2411       H  0.94889482  0.60915829  0.21909189     0.06550
H2412       H  0.99964899  0.67798821  0.15709092     0.06590
N2413       N  0.90596987  0.67643167  0.11895707    -0.26400
N2414       N  0.97464558  0.63057969  0.10146442    -0.26010
N2415       N  0.90307752  0.61674766  0.18016901     0.01030
C2416       C  0.88866255  0.62757345  0.05635438     0.42420
C2417       C  0.96320225  0.56061385  0.14624596    -0.07260
N2418       N  0.97090501  0.66663918  0.13650105    -0.26010
H2419       H  0.00619411  0.61223980  0.09353657     0.06570
N2420       N  0.87801590  0.62123948  0.07672561    -0.47230
H2421       H  0.95407155  0.54619654  0.15393323     0.06560
C2422       C  0.97834210  0.63365876  0.20829505     0.42260
C2423       C  0.87635087  0.57421423  0.12463483    -0.06760
Co2424     Co  0.92974114  0.59989848  0.16426936     0.73820
N2425       N  0.98977444  0.58317168  0.12878212    -0.46950
C2426       C  0.88321774  0.70419640  0.13104917     0.42530
N2427       N  0.90073658  0.61629721  0.20285092    -0.46940
Co2428     Co  0.97219905  0.63108642  0.13710998     0.73890
C2429       C  0.98478506  0.68205017  0.14646728    -0.07270
C2430       C  0.90874069  0.64067212  0.06233282    -0.06830
N2431       N  0.88695847  0.62886228  0.16917621    -0.26360
N2432       N  0.96407506  0.63990868  0.06609771    -0.47120
H2433       H  0.91580623  0.71106555  0.11006576     0.06530
C2434       C  0.95785409  0.61915912  0.20601788    -0.07240
Cl2435     Cl  0.93029428  0.62982657  0.13417834    -0.50240
C2436       C  0.98518107  0.56090492  0.13342790     0.42290
H2437       H  0.85780453  0.64858535  0.18286072     0.06500
N2438       N  0.98439096  0.64035364  0.18679018    -0.46950
C2439       C  0.88620992  0.20330067  0.63401571     0.42140
N2440       N  0.90568328  0.17455107  0.62081127     0.01030
C2441       C  0.90663901  0.05715300  0.64785448    -0.06850
H2442       H  0.92034362  0.10891196  0.71572918     0.06520
C2443       C  0.98986959  0.13843069  0.67925889    -0.07200
Co2444     Co  0.88851902  0.12677569  0.63412774     0.74180
N2445       N  0.90903691  0.11564317  0.68095603    -0.26380
Co2446     Co  0.93371158  0.09815692  0.66279983     0.74070
C2447       C  0.98323631  0.13149720  0.70255065     0.42240
N2448       N  0.97295563  0.16298080  0.62962371     0.00640
N2449       N  0.95955787  0.11692430  0.67846025     0.00750
N2450       N  0.87681953  0.07229919  0.62742914    -0.47220
H2451       H  0.86145699  0.17871194  0.65396824     0.06510
N2452       N  0.89117736  0.12657890  0.67164523     0.01040
N2453       N  0.95828114  0.08036982  0.64376813     0.00780
C2454       C  0.97906669  0.05374586  0.62853115     0.42380
N2455       N  0.95658568  0.17467494  0.61896915    -0.25830
C2456       C  0.87457242  0.12008367  0.57891326    -0.06750
N2457       N  0.90420474  0.19735128  0.62067825    -0.46940
N2458       N  0.96132151  0.05766053  0.64318869    -0.47160
C2459       C  0.88517973  0.12892038  0.55685302     0.42150
N2460       N  0.89059805  0.08909896  0.63546350     0.01020
N2461       N  0.95534277  0.13877541  0.58379118    -0.25850
N2462       N  0.88943519  0.16419574  0.63325011    -0.26350
N2463       N  0.97155537  0.12691722  0.59453242     0.00660
H2464       H  0.94920474  0.14616806  0.54766696     0.06550
H2465       H  0.00172438  0.08042588  0.60936294     0.06590
N2466       N  0.90809790  0.08004205  0.64715615    -0.26400
N2467       N  0.97453385  0.12820602  0.66560042    -0.26010
N2468       N  0.90514506  0.13957938  0.58618370     0.01030
C2469       C  0.88762993  0.12991418  0.70886500     0.42420
C2470       C  0.96191369  0.19727246  0.61921875    -0.07260
N2471       N  0.97330263  0.09160451  0.63089581    -0.26010
H2472       H  0.00474030  0.14819598  0.67349368     0.06570
N2473       N  0.87761487  0.13576172  0.68816045    -0.47230
H2474       H  0.95251155  0.21095522  0.61046271     0.06560
C2475       C  0.97971586  0.12281876  0.55861627     0.42260
C2476       C  0.87628800  0.18127728  0.64280894    -0.06760
Co2477     Co  0.93054760  0.15704294  0.60244588     0.73820
N2478       N  0.98967721  0.17629735  0.63723625    -0.46950
C2479       C  0.88643421  0.05173913  0.63473014     0.42530
N2480       N  0.90372686  0.14062229  0.56355797    -0.46940
Co2481     Co  0.97343381  0.12735583  0.63010595     0.73890
C2482       C  0.98721085  0.07626039  0.62045301    -0.07270
C2483       C  0.90813366  0.11677143  0.70388886    -0.06830
N2484       N  0.88844034  0.12774956  0.59639430    -0.26360
N2485       N  0.96439410  0.11796076  0.70083097    -0.47120
H2486       H  0.91855681  0.04558459  0.65657267     0.06530
C2487       C  0.95908990  0.13736846  0.56093232    -0.07240
Cl2488     Cl  0.93111166  0.12728160  0.63234004    -0.50240
C2489       C  0.98395796  0.19814321  0.63139420     0.42290
H2490       H  0.85895503  0.11012075  0.58127125     0.06500
N2491       N  0.98672091  0.11743377  0.58021516    -0.46950
C2492       C  0.55449891  0.99058701  0.13165899     0.42140
N2493       N  0.57901021  0.96688795  0.14622866     0.01030
C2494       C  0.69545752  0.96136838  0.12197322    -0.06850
H2495       H  0.64230233  0.95399801  0.04978686     0.06520
C2496       C  0.61113739  0.88048089  0.08192014    -0.07200
Co2497     Co  0.62701474  0.97885787  0.13313471     0.74180
N2498       N  0.63642047  0.96044390  0.08614059    -0.26380
Co2499     Co  0.65272267  0.93394701  0.10413649     0.74070
C2500       C  0.62019466  0.88989406  0.05959118     0.42240
N2501       N  0.58300117  0.89777203  0.13901418     0.00640
N2502       N  0.63311973  0.90974043  0.08793517     0.00750
N2503       N  0.67716343  0.99016576  0.14126971    -0.47220
H2504       H  0.58315160  0.01101254  0.11300990     0.06510
N2505       N  0.62645105  0.97756680  0.09743044     0.01040
N2506       N  0.66864632  0.90792666  0.12184530     0.00780
C2507       C  0.69670476  0.88743443  0.13480995     0.42380
N2508       N  0.57512421  0.91658909  0.14941481    -0.25830
C2509       C  0.63858026  0.99410797  0.18317495    -0.06750
N2510       N  0.55671879  0.97220794  0.14596951    -0.46940
N2511       N  0.69127564  0.90544583  0.12136984    -0.47160
C2512       C  0.63165556  0.98670366  0.20637617     0.42150
N2513       N  0.66236672  0.97529577  0.13257557     0.01020
N2514       N  0.61048401  0.91478255  0.18330025    -0.25850
N2515       N  0.59154456  0.98118243  0.13374640    -0.26350
N2516       N  0.62084940  0.89658145  0.17392879     0.00660
H2517       H  0.60264111  0.92533798  0.21811448     0.06550
H2518       H  0.67129458  0.86403186  0.15551283     0.06590
N2519       N  0.67248880  0.95835614  0.12114030    -0.26400
N2520       N  0.62044137  0.89399586  0.09879487    -0.26010
N2521       N  0.61533991  0.96510747  0.18123474     0.01030
C2522       C  0.62284104  0.98693775  0.06174557     0.42420
C2523       C  0.55234610  0.91594039  0.15164636    -0.07260
N2524       N  0.65773348  0.89243603  0.13472116    -0.26010
H2525       H  0.60019553  0.86560211  0.08479067     0.06570
N2526       N  0.61820896  0.99381099  0.08356867    -0.47230
H2527       H  0.54223298  0.92920004  0.16015063     0.06560
C2528       C  0.62234182  0.89174717  0.21110944     0.42260
C2529       C  0.57763184  0.99657139  0.12360736    -0.06760
Co2530     Co  0.59488301  0.94085285  0.16509224     0.73820
N2531       N  0.56551621  0.88332682  0.13439699    -0.46950
C2532       C  0.69840016  0.98240080  0.13556257     0.42530
N2533       N  0.61683228  0.96893356  0.20376137    -0.46940
Co2534     Co  0.62041412  0.89392706  0.13655039     0.73890
C2535       C  0.67434403  0.87851763  0.14400430    -0.07270
C2536       C  0.63503983  0.96473123  0.06333798    -0.06830
N2537       N  0.62763145  0.97970477  0.16887737    -0.26360
N2538       N  0.63346972  0.90778113  0.06522269    -0.47120
H2539       H  0.70831549  0.95089123  0.11318394     0.06530
C2540       C  0.61045375  0.91308951  0.20624196    -0.07240
Cl2541     Cl  0.62368799  0.93668122  0.13469093    -0.50240
C2542       C  0.54562953  0.89383876  0.14240879     0.42290
H2543       H  0.64912497  0.00858701  0.17782045     0.06500
N2544       N  0.62864533  0.88210507  0.19034647    -0.46950
C2545       C  0.01031120  0.61674902  0.00530824    -0.26640
C2546       C  0.03247962  0.62551461  0.00937688    -0.14710
C2547       C  0.03729824  0.63679857  0.03051669     0.35920
C2548       C  0.02052522  0.63760846  0.04766452    -0.26080
C2549       C  0.99890097  0.62749695  0.04433963    -0.15320
C2550       C  0.99326913  0.61763872  0.02264899     0.37010
N2551       N  0.97110124  0.60752137  0.01796284    -0.89570
H2552       H  0.00647237  0.60852345  0.98890398     0.18120
H2553       H  0.02460011  0.64592372  0.06398130     0.18110
N2554       N  0.05887354  0.64801301  0.03497642    -0.88600
H2555       H  0.96336423  0.61726667  0.00477752     0.35490
H2556       H  0.96010743  0.60850604  0.03229075     0.40590
H2557       H  0.06257429  0.65894526  0.02103408     0.40210
H2558       H  0.07194858  0.63559201  0.03653855     0.35090
C2559       C  0.00929825  0.99756692  0.64325654    -0.26640
C2560       C  0.02529612  0.99659342  0.62496717    -0.14710
C2561       C  0.02247911  0.01151118  0.60575078     0.35920
C2562       C  0.00563347  0.02878078  0.60643560    -0.26080
C2563       C  0.99156988  0.03165268  0.62600103    -0.15320
C2564       C  0.99228826  0.01500135  0.64397541     0.37010
N2565       N  0.97701343  0.01676865  0.66360054    -0.89570
H2566       H  0.01106098  0.98582219  0.65781173     0.18120
H2567       H  0.00447980  0.04089947  0.59210253     0.18110
N2568       N  0.03679829  0.00994450  0.58554369    -0.88600
H2569       H  0.98069465  0.00381061  0.67575078     0.35490
H2570       H  0.96025306  0.01357692  0.65769503     0.40590
H2571       H  0.03647716  0.99287292  0.57952331     0.40210
H2572       H  0.05369437  0.01429495  0.58997447     0.35090
C2573       C  0.60157949  0.01828629  0.04227602    -0.26640
C2574       C  0.62023003  0.00268788  0.04182924    -0.14710
C2575       C  0.63709850  0.00451784  0.02419058     0.35920
C2576       C  0.63572452  0.02303570  0.00842435    -0.26080
C2577       C  0.61816061  0.03983436  0.01027338    -0.15320
C2578       C  0.60018731  0.03666441  0.02647110     0.37010
N2579       N  0.58069552  0.05215386  0.02697111    -0.89570
H2580       H  0.58834501  0.01649910  0.05550384     0.18120
H2581       H  0.64929814  0.02516452  0.99562278     0.18110
N2582       N  0.65629019  0.98862167  0.02314284    -0.88600
H2583       H  0.56895930  0.04715380  0.03984014     0.35490
H2584       H  0.57206564  0.05055347  0.01116791     0.40590
H2585       H  0.66658529  0.99157644  0.03769197     0.40210
H2586       H  0.66667739  0.99206774  0.00869117     0.35090
C2587       C  0.35803709  0.62002285  0.52317757    -0.26640
C2588       C  0.37674197  0.63297267  0.53095857    -0.14710
C2589       C  0.39012309  0.64538077  0.51412634     0.35920
C2590       C  0.38653140  0.64173638  0.49024220    -0.26080
C2591       C  0.36927884  0.62690451  0.48248251    -0.15320
C2592       C  0.35388745  0.61716276  0.49938634     0.37010
N2593       N  0.33367145  0.60435653  0.49316770    -0.89570
H2594       H  0.34694146  0.61139103  0.53561703     0.18120
H2595       H  0.39776350  0.64998363  0.47766758     0.18110
N2596       N  0.40761782  0.66150717  0.52119302    -0.88600
H2597       H  0.33849914  0.58835929  0.48625958     0.35490
H2598       H  0.32415075  0.61391414  0.48105658     0.40590
H2599       H  0.39921418  0.67529833  0.52947180     0.40210
H2600       H  0.41614271  0.66857783  0.50684489     0.35090
C2601       C  0.50953642  0.53250130  0.64968368    -0.26640
C2602       C  0.49281404  0.53187937  0.63223365    -0.14710
C2603       C  0.49175370  0.51270668  0.61708792     0.35920
C2604       C  0.50857647  0.49521706  0.61894745    -0.26080
C2605       C  0.52605367  0.49652492  0.63565631    -0.15320
C2606       C  0.52617399  0.51504878  0.65166893     0.37010
N2607       N  0.54306258  0.51700067  0.66982182    -0.89570
H2608       H  0.51010201  0.54710762  0.66146764     0.18120
H2609       H  0.50861421  0.48107105  0.60661359     0.18110
N2610       N  0.47461486  0.51086370  0.59918141    -0.88600
H2611       H  0.55350652  0.53125524  0.66601127     0.35490
H2612       H  0.55384704  0.50248882  0.67081581     0.40590
H2613       H  0.46308053  0.52483869  0.59947931     0.40210
H2614       H  0.46481619  0.49607272  0.60265657     0.35090
C2615       C  0.48890791  0.38481369  0.60635324    -0.26640
C2616       C  0.47475767  0.38233811  0.62623370    -0.14710
C2617       C  0.48582902  0.37862126  0.64777639     0.35920
C2618       C  0.51026027  0.37791485  0.64869243    -0.26080
C2619       C  0.52433057  0.38023538  0.62873206    -0.15320
C2620       C  0.51323328  0.38381025  0.60721720     0.37010
N2621       N  0.52582701  0.38755796  0.58602459    -0.89570
H2622       H  0.48086312  0.38740662  0.58959598     0.18120
H2623       H  0.51845981  0.37589445  0.66545029     0.18110
N2624       N  0.47317839  0.37470136  0.66888245    -0.88600
H2625       H  0.52164664  0.37411005  0.57469178     0.35490
H2626       H  0.54364402  0.38661581  0.58852300     0.40590
H2627       H  0.45537763  0.37494616  0.66616048     0.40210
H2628       H  0.47681667  0.38839855  0.68010306     0.35090
C2629       C  0.38680224  0.49137695  0.51458060    -0.26640
C2630       C  0.37751072  0.46984038  0.50850985    -0.14710
C2631       C  0.36574739  0.46728984  0.48730154     0.35920
C2632       C  0.36517941  0.48563185  0.47184296    -0.26080
C2633       C  0.37602681  0.50660091  0.47697661    -0.15320
C2634       C  0.38611270  0.51003014  0.49897676     0.37010
N2635       N  0.39652393  0.53156908  0.50566294    -0.89570
H2636       H  0.39522043  0.49349734  0.53118021     0.18120
H2637       H  0.35668190  0.48324775  0.45529077     0.18110
N2638       N  0.35390005  0.44646568  0.48107802    -0.88600
H2639       H  0.38720153  0.53797011  0.51984872     0.35490
H2640       H  0.39511789  0.54401541  0.49259927     0.40590
H2641       H  0.34252549  0.44213189  0.49448684     0.40210
H2642       H  0.36589568  0.43309153  0.47878043     0.35090
C2643       C  0.38685649  0.51870488  0.61077001    -0.26640
C2644       C  0.37636519  0.52906722  0.63008511    -0.14710
C2645       C  0.36740551  0.51427719  0.64770254     0.35920
C2646       C  0.36833801  0.48990669  0.64502730    -0.26080
C2647       C  0.37883513  0.47961660  0.62559988    -0.15320
C2648       C  0.38849901  0.49448974  0.60844913     0.37010
N2649       N  0.40069766  0.48562053  0.58858006    -0.89570
H2650       H  0.39524105  0.52957558  0.59794142     0.18120
H2651       H  0.36011812  0.47898483  0.65790251     0.18110
N2652       N  0.35711085  0.52338061  0.66850779    -0.88600
H2653       H  0.39047881  0.48882957  0.57400415     0.35490
H2654       H  0.40344626  0.46776173  0.58970651     0.40590
H2655       H  0.35634283  0.54145987  0.66821017     0.40210
H2656       H  0.36773299  0.51862900  0.68237453     0.35090
C2657       C  0.60632224  0.52081401  0.75649752    -0.26640
C2658       C  0.62765147  0.53092972  0.76170316    -0.14710
C2659       C  0.64786830  0.52374840  0.74984223     0.35920
C2660       C  0.64600560  0.50727502  0.73225494    -0.26080
C2661       C  0.62453898  0.49779883  0.72654684    -0.15320
C2662       C  0.60447923  0.50439326  0.73884364     0.37010
N2663       N  0.58213254  0.49589829  0.73215161    -0.89570
H2664       H  0.59079271  0.52676195  0.76527237     0.18120
H2665       H  0.66135519  0.50214384  0.72267154     0.18110
N2666       N  0.67041467  0.53267493  0.75516117    -0.88600
H2667       H  0.56900540  0.50449584  0.74126727     0.35490
H2668       H  0.58122449  0.47855531  0.73725379     0.40590
H2669       H  0.67004318  0.54366733  0.76949501     0.40210
H2670       H  0.67596872  0.54245209  0.74094683     0.35090
C2671       C  0.51355235  0.63595375  0.75928461    -0.26640
C2672       C  0.53536315  0.62713338  0.75311697    -0.14710
C2673       C  0.53895201  0.61768113  0.73084610     0.35920
C2674       C  0.52115248  0.61837992  0.71490310    -0.26080
C2675       C  0.49981222  0.62853670  0.72041664    -0.15320
C2676       C  0.49558022  0.63688408  0.74305122     0.37010
N2677       N  0.47390408  0.64719485  0.74984988    -0.89570
H2678       H  0.51071740  0.64282459  0.77653479     0.18120
H2679       H  0.52421742  0.61124231  0.69778723     0.18110
N2680       N  0.56026916  0.60685881  0.72395856    -0.88600
H2681       H  0.46678440  0.63679724  0.76287055     0.35490
H2682       H  0.46205037  0.64739791  0.73625566     0.40590
H2683       H  0.56454991  0.59402988  0.73605005     0.40210
H2684       H  0.57331459  0.61928951  0.72334809     0.35090
C2685       C  0.26241015  0.47136463  0.36341412    -0.26640
C2686       C  0.24381885  0.47406946  0.37882326    -0.14710
C2687       C  0.24267670  0.49397919  0.39296182     0.35920
C2688       C  0.26148338  0.50928659  0.39308743    -0.26080
C2689       C  0.28132556  0.50490902  0.37961947    -0.15320
C2690       C  0.28140206  0.48613213  0.36403403     0.37010
N2691       N  0.30105376  0.48139451  0.34950600    -0.89570
H2692       H  0.26302220  0.45651305  0.35195096     0.18120
H2693       H  0.26102442  0.52398303  0.40469177     0.18110
N2694       N  0.22318236  0.49812674  0.40788255    -0.88600
H2695       H  0.29697616  0.46892775  0.33706152     0.35490
H2696       H  0.31376346  0.47378331  0.35992351     0.40590
H2697       H  0.20903843  0.50177457  0.39723722     0.40210
H2698       H  0.22573784  0.51294071  0.41793880     0.35090
C2699       C  0.26935381  0.39030824  0.46872880    -0.26640
C2700       C  0.24826528  0.37987916  0.47442207    -0.14710
C2701       C  0.24491652  0.37053050  0.49685184     0.35920
C2702       C  0.26350005  0.37039905  0.51241966    -0.26080
C2703       C  0.28504666  0.37934971  0.50592006    -0.15320
C2704       C  0.28767429  0.39024804  0.48418033     0.37010
N2705       N  0.30849275  0.40187715  0.47747329    -0.89570
H2706       H  0.27178751  0.39825228  0.45185398     0.18120
H2707       H  0.26131548  0.36261700  0.52939562     0.18110
N2708       N  0.22350334  0.36030521  0.50414703    -0.88600
H2709       H  0.32190751  0.38981565  0.47592675     0.35490
H2710       H  0.31261487  0.41387782  0.49032455     0.40590
H2711       H  0.21108000  0.36089773  0.49109877     0.40210
H2712       H  0.21716519  0.37038001  0.51781448     0.35090
C2713       C  0.51966830  0.75255980  0.62301699    -0.26640
C2714       C  0.53964231  0.74672063  0.63565010    -0.14710
C2715       C  0.53936974  0.72669351  0.64968256     0.35920
C2716       C  0.52044997  0.71188252  0.64894985    -0.26080
C2717       C  0.50140763  0.71648974  0.63468410    -0.15320
C2718       C  0.50036972  0.73779385  0.62258946     0.37010
N2719       N  0.48024724  0.74419819  0.60949799    -0.89570
H2720       H  0.51931146  0.76837113  0.61286953     0.18120
H2721       H  0.52112784  0.69613559  0.65920942     0.18110
N2722       N  0.55820048  0.72094536  0.66466416    -0.88600
H2723       H  0.48285912  0.75990964  0.60084483     0.35490
H2724       H  0.46689191  0.74720274  0.62139749     0.40590
H2725       H  0.56472496  0.70474309  0.65973733     0.40210
H2726       H  0.55167639  0.71942364  0.68150582     0.35090
C2727       C  0.63946822  0.75251105  0.73902660    -0.26640
C2728       C  0.62180134  0.75371855  0.72251117    -0.14710
C2729       C  0.60310693  0.73808348  0.72374645     0.35920
C2730       C  0.60407347  0.71982125  0.73960566    -0.26080
C2731       C  0.62278600  0.71733802  0.75478394    -0.15320
C2732       C  0.64028150  0.73434495  0.75515222     0.37010
N2733       N  0.65954886  0.73238713  0.77074630    -0.89570
H2734       H  0.65368012  0.76465279  0.73818713     0.18120
H2735       H  0.59017161  0.70729146  0.73983305     0.18110
N2736       N  0.58311045  0.74000611  0.70908573    -0.88600
H2737       H  0.67040567  0.74674608  0.76918902     0.35490
H2738       H  0.66935819  0.71800145  0.76560888     0.40590
H2739       H  0.58329495  0.75531900  0.69945222     0.40210
H2740       H  0.56860016  0.74142545  0.71986367     0.35090
C2741       C  0.26273270  0.25214129  0.39781698    -0.26640
C2742       C  0.28168515  0.25462135  0.38289419    -0.14710
C2743       C  0.28317270  0.27387930  0.36781283     0.35920
C2744       C  0.26637214  0.29108721  0.36925017    -0.26080
C2745       C  0.24804174  0.28924597  0.38496941    -0.15320
C2746       C  0.24562810  0.26931333  0.39895934     0.37010
N2747       N  0.22677965  0.26635266  0.41499902    -0.89570
H2748       H  0.26166717  0.23721880  0.40920965     0.18120
H2749       H  0.26777705  0.30622564  0.35816203     0.18110
N2750       N  0.30129955  0.27658664  0.35088538    -0.88600
H2751       H  0.21751488  0.25175992  0.40978607     0.35490
H2752       H  0.21522493  0.28029947  0.41441914     0.40590
H2753       H  0.31180305  0.26190233  0.34954220     0.40210
H2754       H  0.31172303  0.29034185  0.35616222     0.35090
C2755       C  0.39004002  0.25776902  0.48589397    -0.26640
C2756       C  0.36863022  0.25266318  0.47589758    -0.14710
C2757       C  0.34823282  0.26295333  0.48456141     0.35920
C2758       C  0.34988707  0.27932640  0.50237568    -0.26080
C2759       C  0.37144178  0.28529605  0.51152413    -0.15320
C2760       C  0.39172089  0.27415282  0.50361315     0.37010
N2761       N  0.41403259  0.28075553  0.51226601    -0.89570
H2762       H  0.40565339  0.24985238  0.47901381     0.18120
H2763       H  0.33443685  0.28805332  0.50862354     0.18110
N2764       N  0.32602446  0.25663057  0.47544749    -0.88600
H2765       H  0.42722933  0.27246821  0.50296563     0.35490
H2766       H  0.41528828  0.27458371  0.52924147     0.40590
H2767       H  0.32488272  0.26306103  0.45857026     0.40210
H2768       H  0.31277326  0.26475294  0.48481547     0.35090
C2769       C  0.38572345  0.11473774  0.24837780    -0.26640
C2770       C  0.37571928  0.13103355  0.23287583    -0.14710
C2771       C  0.36281765  0.14946838  0.24212500     0.35920
C2772       C  0.36124993  0.15186002  0.26638520    -0.26080
C2773       C  0.37260993  0.13647555  0.28195609    -0.15320
C2774       C  0.38430815  0.11722553  0.27266901     0.37010
N2775       N  0.39509488  0.10054547  0.28770237    -0.89570
H2776       H  0.39533911  0.10012101  0.24149021     0.18120
H2777       H  0.35162483  0.16654817  0.27306206     0.18110
N2778       N  0.35212636  0.16621156  0.22706123    -0.88600
H2779       H  0.40366949  0.08780391  0.27804231     0.35490
H2780       H  0.38190430  0.09209988  0.29676590     0.40590
H2781       H  0.36534232  0.17525294  0.21864032     0.40210
H2782       H  0.34281870  0.17847426  0.23666636     0.35090
C2783       C  0.49489267  0.01866907  0.13234504    -0.26640
C2784       C  0.50126836  0.04185530  0.13552505    -0.14710
C2785       C  0.52469779  0.04753845  0.13872495     0.35920
C2786       C  0.54139357  0.03028119  0.13744311    -0.26080
C2787       C  0.53537909  0.00723934  0.13316878    -0.15320
C2788       C  0.51176794  0.00113189  0.13104798     0.37010
N2789       N  0.50432949  0.97782965  0.12658153    -0.89570
H2790       H  0.47683475  0.01428189  0.13007391     0.18120
H2791       H  0.55929489  0.03507687  0.14008358     0.18110
N2792       N  0.53169632  0.07079625  0.14375430    -0.88600
H2793       H  0.49492022  0.97222862  0.14102381     0.35490
H2794       H  0.51825366  0.96644534  0.12457053     0.40590
H2795       H  0.54336138  0.07607733  0.13093024     0.40210
H2796       H  0.54034136  0.07074981  0.15964287     0.35090
C2797       C  0.51683647  0.10835106  0.04459619    -0.26640
C2798       C  0.49699429  0.12210421  0.04250628    -0.14710
C2799       C  0.49314588  0.13459667  0.02178958     0.35920
C2800       C  0.51078727  0.13533061  0.00496983    -0.26080
C2801       C  0.53203537  0.12405812  0.00875496    -0.15320
C2802       C  0.53472682  0.10975450  0.02850582     0.37010
N2803       N  0.55605732  0.09773279  0.03314027    -0.89570
H2804       H  0.51936515  0.09762712  0.05976340     0.18120
H2805       H  0.50836344  0.14578644  0.98956925     0.18110
N2806       N  0.47193236  0.14720831  0.01829517    -0.88600
H2807       H  0.55377732  0.08569065  0.04649240     0.35490
H2808       H  0.56759265  0.10990043  0.03980182     0.40590
H2809       H  0.45858534  0.13508559  0.01739502     0.40210
H2810       H  0.47216986  0.15583616  0.00234914     0.35090
C2811       C  0.39052853  0.61483344  0.26537437    -0.26640
C2812       C  0.37330023  0.62202694  0.28137714    -0.14710
C2813       C  0.35361199  0.63346146  0.27286327     0.35920
C2814       C  0.35108179  0.63642164  0.24872859    -0.26080
C2815       C  0.36762784  0.62790994  0.23256091    -0.15320
C2816       C  0.38790068  0.61756018  0.24120160     0.37010
N2817       N  0.40563144  0.60963541  0.22559155    -0.89570
H2818       H  0.40610940  0.60653665  0.27172552     0.18120
H2819       H  0.33549812  0.64485240  0.24256260     0.18110
N2820       N  0.33583850  0.64122047  0.28854742    -0.88600
H2821       H  0.41921413  0.60189190  0.23474365     0.35490
H2822       H  0.41252856  0.62423120  0.21739259     0.40590
H2823       H  0.32848951  0.62654830  0.29619347     0.40210
H2824       H  0.32254985  0.64958634  0.27950280     0.35090
C2825       C  0.22200176  0.62432284  0.05042471    -0.26640
C2826       C  0.24543968  0.62556123  0.04453332    -0.14710
C2827       C  0.25217842  0.62616097  0.02106911     0.35920
C2828       C  0.23493684  0.62668032  0.00388131    -0.26080
C2829       C  0.21140870  0.62660113  0.01005648    -0.15320
C2830       C  0.20493513  0.62462013  0.03361155     0.37010
N2831       N  0.18108124  0.62243276  0.04051632    -0.89570
H2832       H  0.21678516  0.62267127  0.06837924     0.18120
H2833       H  0.23980591  0.62770660  0.98576667     0.18110
N2834       N  0.27626669  0.62661448  0.01486944    -0.88600
H2835       H  0.17939268  0.62195951  0.05855522     0.35490
H2836       H  0.17521299  0.60645302  0.03444218     0.40590
H2837       H  0.28314415  0.64212771  0.02106007     0.40210
H2838       H  0.27820994  0.62691828  0.99685274     0.35090
C2839       C  0.38115285  0.26642083  0.64303200    -0.26640
C2840       C  0.36815589  0.27782369  0.62586136    -0.14710
C2841       C  0.35683242  0.26404304  0.60900891     0.35920
C2842       C  0.35861590  0.23969023  0.60993164    -0.26080
C2843       C  0.37131777  0.22819901  0.62723875    -0.15320
C2844       C  0.38268929  0.24195654  0.64408529     0.37010
N2845       N  0.39551895  0.23169315  0.66282130    -0.89570
H2846       H  0.39075395  0.27663130  0.65542756     0.18120
H2847       H  0.34878955  0.22953412  0.59765605     0.18110
N2848       N  0.34324271  0.27412881  0.59068246    -0.88600
H2849       H  0.41265738  0.23719825  0.66126913     0.35490
H2850       H  0.39599815  0.21365747  0.66144910     0.40590
H2851       H  0.34220048  0.29212766  0.59212707     0.40210
H2852       H  0.32630621  0.26812416  0.59259326     0.35090
C2853       C  0.36567569  0.11531166  0.49026002    -0.26640
C2854       C  0.38160863  0.13188122  0.48315386    -0.14710
C2855       C  0.39673423  0.14128931  0.50022145     0.35920
C2856       C  0.39215698  0.13784353  0.52402574    -0.26080
C2857       C  0.37419362  0.12347873  0.53129972    -0.15320
C2858       C  0.36235678  0.11040104  0.51386340     0.37010
N2859       N  0.34694729  0.09181028  0.51925107    -0.89570
H2860       H  0.35500380  0.10674936  0.47749821     0.18120
H2861       H  0.40250095  0.14664155  0.53688016     0.18110
N2862       N  0.41686973  0.15415006  0.49341984    -0.88600
H2863       H  0.33184213  0.09849299  0.52660396     0.35490
H2864       H  0.35508673  0.08038654  0.53068931     0.40590
H2865       H  0.42772732  0.14286293  0.48425134     0.40210
H2866       H  0.42614239  0.15963554  0.50791756     0.35090
C2867       C  0.24979961  0.01961461  0.62736327    -0.26640
C2868       C  0.24485256  0.04239771  0.63447302    -0.14710
C2869       C  0.22259578  0.04771782  0.64328675     0.35920
C2870       C  0.20559498  0.03079981  0.64319876    -0.26080
C2871       C  0.20992295  0.00836424  0.63497611    -0.15320
C2872       C  0.23253120  0.00243814  0.62755359     0.37010
N2873       N  0.23798200  0.97920869  0.62034297    -0.89570
H2874       H  0.26694705  0.01529640  0.62107915     0.18120
H2875       H  0.18865903  0.03571766  0.64938020     0.18110
N2876       N  0.21695855  0.07042979  0.65198518    -0.88600
H2877       H  0.25575318  0.97741444  0.61736840     0.35490
H2878       H  0.23003014  0.97651821  0.60434675     0.40590
H2879       H  0.22609401  0.07258494  0.66742626     0.40210
H2880       H  0.19942557  0.07183460  0.65629706     0.35090
C2881       C  0.50288315  0.26996498  0.38151755    -0.26640
C2882       C  0.49542426  0.29256432  0.38651951    -0.14710
C2883       C  0.47210521  0.29698263  0.39208457     0.35920
C2884       C  0.45626498  0.27909737  0.39036035    -0.26080
C2885       C  0.46318968  0.25684534  0.38350427    -0.15320
C2886       C  0.48692103  0.25184177  0.37991781     0.37010
N2887       N  0.49534299  0.22906473  0.37417235    -0.89570
H2888       H  0.52101504  0.26658361  0.37796488     0.18120
H2889       H  0.43826018  0.28265463  0.39433827     0.18110
N2890       N  0.46458254  0.31958864  0.39955171    -0.88600
H2891       H  0.50264206  0.22989412  0.35759851     0.35490
H2892       H  0.48197141  0.21705732  0.37332804     0.40590
H2893       H  0.47261360  0.32301308  0.41537728     0.40210
H2894       H  0.44675836  0.31989182  0.40268672     0.35090
C2895       C  0.48632384  0.40574221  0.48061287    -0.26640
C2896       C  0.50429266  0.38927915  0.48054824    -0.14710
C2897       C  0.50642831  0.37398687  0.49971003     0.35920
C2898       C  0.48899535  0.37351296  0.51656941    -0.26080
C2899       C  0.46938736  0.38776209  0.51456445    -0.15320
C2900       C  0.46877475  0.40508804  0.49731554     0.37010
N2901       N  0.44984634  0.42134410  0.49624047    -0.89570
H2902       H  0.48523262  0.41855291  0.46694028     0.18120
H2903       H  0.49002291  0.36068034  0.53025187     0.18110
N2904       N  0.52532400  0.35802140  0.50211079    -0.88600
H2905       H  0.45181956  0.43269106  0.48223450     0.35490
H2906       H  0.45038721  0.43144588  0.51124376     0.40590
H2907       H  0.54081044  0.36729005  0.50159982     0.40210
H2908       H  0.52492306  0.34616301  0.48847267     0.35090
C2909       C  0.64233497  0.38460726  0.49169208    -0.26640
C2910       C  0.62530914  0.36905146  0.48479302    -0.14710
C2911       C  0.61543604  0.35443117  0.50228740     0.35920
C2912       C  0.61806760  0.35995595  0.52587396    -0.26080
C2913       C  0.63287127  0.37766841  0.53274557    -0.15320
C2914       C  0.64737613  0.38779491  0.51531909     0.37010
N2915       N  0.66810689  0.40021741  0.52077115    -0.89570
H2916       H  0.65167911  0.39448479  0.47874574     0.18120
H2917       H  0.60835937  0.35042408  0.53881321     0.18110
N2918       N  0.60375635  0.33319865  0.49695760    -0.88600
H2919       H  0.66540277  0.41779498  0.51724698     0.35490
H2920       H  0.67288778  0.39795253  0.53805796     0.40590
H2921       H  0.60615074  0.32838499  0.47968670     0.40210
H2922       H  0.58612637  0.33531347  0.50049506     0.35090
C2923       C  0.50755144  0.49595226  0.38986830    -0.26640
C2924       C  0.50255412  0.47311181  0.38349485    -0.14710
C2925       C  0.48002485  0.46716363  0.37642108     0.35920
C2926       C  0.46249282  0.48369419  0.37777427    -0.26080
C2927       C  0.46696679  0.50613529  0.38561681    -0.15320
C2928       C  0.48989255  0.51272550  0.39101021     0.37010
N2929       N  0.49576329  0.53578096  0.39826774    -0.89570
H2930       H  0.52498344  0.50050074  0.39493433     0.18120
H2931       H  0.44509155  0.47894879  0.37276758     0.18110
N2932       N  0.47497725  0.44422399  0.36814390    -0.88600
H2933       H  0.50188687  0.53471879  0.41526436     0.35490
H2934       H  0.48130331  0.54666585  0.39867608     0.40590
H2935       H  0.48429685  0.44174158  0.35278499     0.40210
H2936       H  0.45747570  0.44267608  0.36392321     0.35090
C2937       C  0.50375863  0.63344339  0.40905765    -0.26640
C2938       C  0.52080162  0.62856966  0.39192752    -0.14710
C2939       C  0.51319363  0.62258861  0.36959966     0.35920
C2940       C  0.48915806  0.62083342  0.36528075    -0.26080
C2941       C  0.47235196  0.62521926  0.38267141    -0.15320
C2942       C  0.47986628  0.63204849  0.40464849     0.37010
N2943       N  0.46332238  0.63645554  0.42279122    -0.89570
H2944       H  0.50883500  0.63760778  0.42652834     0.18120
H2945       H  0.48346653  0.61540099  0.34827810     0.18110
N2946       N  0.52971615  0.61802810  0.35151386    -0.88600
H2947       H  0.47162901  0.64188554  0.43788368     0.35490
H2948       H  0.45526882  0.62076718  0.42681395     0.40590
H2949       H  0.53840771  0.63350574  0.34806788     0.40210
H2950       H  0.52127625  0.61346076  0.33620419     0.35090
C2951       C  0.53658932  0.63331100  0.52874824    -0.26640
C2952       C  0.53273972  0.62414578  0.50672352    -0.14710
C2953       C  0.51043134  0.61641814  0.50040873     0.35920
C2954       C  0.49282545  0.61664597  0.51718634    -0.26080
C2955       C  0.49733547  0.62447353  0.53967421    -0.15320
C2956       C  0.51910102  0.63365714  0.54521215     0.37010
N2957       N  0.52353301  0.64331998  0.56762427    -0.89570
H2958       H  0.55343908  0.64005317  0.53334651     0.18120
H2959       H  0.47588771  0.60993554  0.51292903     0.18110
N2960       N  0.50532715  0.60733199  0.47781754    -0.88600
H2961       H  0.52868220  0.66052693  0.56540058     0.35490
H2962       H  0.53729185  0.63415419  0.57506315     0.40590
H2963       H  0.51979479  0.60762091  0.46697056     0.40210
H2964       H  0.49296327  0.61822690  0.47025051     0.35090
C2965       C  0.61639558  0.51343307  0.50257335    -0.26640
C2966       C  0.62253841  0.53591008  0.50928679    -0.14710
C2967       C  0.62697427  0.54094251  0.53273398     0.35920
C2968       C  0.62342065  0.52385453  0.54928243    -0.26080
C2969       C  0.61608689  0.50172922  0.54290806    -0.15320
C2970       C  0.61317933  0.49606709  0.51938678     0.37010
N2971       N  0.60670642  0.47299154  0.51281688    -0.89570
H2972       H  0.61338374  0.50970140  0.48444093     0.18120
H2973       H  0.62679087  0.52778321  0.56730869     0.18110
N2974       N  0.63524866  0.56337302  0.53964423    -0.88600
H2975       H  0.60535164  0.47175504  0.49479873     0.35490
H2976       H  0.59020725  0.46987575  0.51956719     0.40590
H2977       H  0.65164661  0.56555750  0.53228422     0.40210
H2978       H  0.63741320  0.56420347  0.55760366     0.35090
C2979       C  0.62411053  0.51619841  0.37092685    -0.26640
C2980       C  0.61667828  0.52560184  0.39206455    -0.14710
C2981       C  0.61145550  0.51007405  0.41050481     0.35920
C2982       C  0.61460338  0.48611565  0.40784003    -0.26080
C2983       C  0.62218941  0.47664616  0.38687518    -0.15320
C2984       C  0.62650691  0.49199669  0.36796524     0.37010
N2985       N  0.63346616  0.48365253  0.34552600    -0.89570
H2986       H  0.62868179  0.52770436  0.35679401     0.18120
H2987       H  0.60958996  0.47466797  0.42188364     0.18110
N2988       N  0.60172300  0.51804626  0.43191566    -0.88600
H2989       H  0.62003415  0.48728852  0.33396075     0.35490
H2990       H  0.63597200  0.46572382  0.34551799     0.40590
H2991       H  0.58705794  0.52793945  0.42828253     0.40210
H2992       H  0.61371413  0.52853957  0.44033311     0.35090
C2993       C  0.64045076  0.73829040  0.50092875    -0.26640
C2994       C  0.62873967  0.71799445  0.50704793    -0.14710
C2995       C  0.61750632  0.71614781  0.52860605     0.35920
C2996       C  0.61962340  0.73414257  0.54446428    -0.26080
C2997       C  0.63256593  0.75387313  0.53906034    -0.15320
C2998       C  0.64254108  0.75645389  0.51683465     0.37010
N2999       N  0.65514893  0.77678920  0.51004203    -0.89570
H3000       H  0.64871578  0.73964949  0.48409978     0.18120
H3001       H  0.61151411  0.73260579  0.56136458     0.18110
N3002       N  0.60438277  0.69581133  0.53440603    -0.88600
H3003       H  0.67233187  0.77181211  0.50715122     0.35490
H3004       H  0.65532956  0.78916900  0.52319883     0.40590
H3005       H  0.59037476  0.69502304  0.52302207     0.40210
H3006       H  0.59742001  0.69716921  0.55109462     0.35090
C3007       C  0.35835442  0.26654006  0.13651148    -0.26640
C3008       C  0.37828355  0.28027530  0.13940634    -0.14710
C3009       C  0.39979903  0.26905716  0.14248743     0.35920
C3010       C  0.40077519  0.24479210  0.14216582    -0.26080
C3011       C  0.38109279  0.23093466  0.13817531    -0.15320
C3012       C  0.35944597  0.24213378  0.13557181     0.37010
N3013       N  0.33845099  0.22966033  0.13124289    -0.89570
H3014       H  0.34159713  0.27494722  0.13511446     0.18120
H3015       H  0.41755107  0.23661103  0.14442744     0.18110
N3016       N  0.42089468  0.28141245  0.14684464    -0.88600
H3017       H  0.32728035  0.23274813  0.14519487     0.35490
H3018       H  0.34131827  0.21182271  0.13081222     0.40590
H3019       H  0.41835676  0.29929315  0.14705816     0.40210
H3020       H  0.43222537  0.27796437  0.13310402     0.35090
C3021       C  0.35573522  0.51681372  0.15352791    -0.26640
C3022       C  0.37087083  0.52905106  0.13895069    -0.14710
C3023       C  0.38628773  0.51644514  0.12467931     0.35920
C3024       C  0.38679857  0.49196718  0.12597029    -0.26080
C3025       C  0.37144581  0.47980843  0.14043220    -0.15320
C3026       C  0.35588016  0.49246759  0.15449120     0.37010
N3027       N  0.34012375  0.48050464  0.16965325    -0.89570
H3028       H  0.34297521  0.52637973  0.16352181     0.18120
H3029       H  0.39951419  0.48233883  0.11600247     0.18110
N3030       N  0.40108097  0.52851315  0.10869540    -0.88600
H3031       H  0.32907742  0.49227347  0.17795577     0.35490
H3032       H  0.34979299  0.47255627  0.18273970     0.40590
H3033       H  0.39055468  0.53657050  0.09634160     0.40210
H3034       H  0.41156628  0.51676886  0.09966614     0.35090
C3035       C  0.38581470  0.50425333  0.27643326    -0.26640
C3036       C  0.36685046  0.50520791  0.29162996    -0.14710
C3037       C  0.34671882  0.49255954  0.28634902     0.35920
C3038       C  0.34719336  0.47675348  0.26817869    -0.26080
C3039       C  0.36721886  0.47362130  0.25484260    -0.15320
C3040       C  0.38614412  0.48866514  0.25781990     0.37010
N3041       N  0.40616754  0.48701736  0.24307817    -0.89570
H3042       H  0.40095625  0.51467887  0.27985830     0.18120
H3043       H  0.33217859  0.46598816  0.26521681     0.18110
N3044       N  0.32558159  0.49536029  0.29898485    -0.88600
H3045       H  0.41887817  0.49869289  0.24833445     0.35490
H3046       H  0.40110880  0.49222964  0.22647939     0.40590
H3047       H  0.32135075  0.51298845  0.29948888     0.40210
H3048       H  0.32809510  0.48936416  0.31576010     0.35090
C3049       C  0.28733414  0.37453227  0.27839696    -0.26640
C3050       C  0.28162728  0.38323037  0.25647640    -0.14710
C3051       C  0.25902792  0.39156985  0.25203619     0.35920
C3052       C  0.24300880  0.39204152  0.27030277    -0.26080
C3053       C  0.24934826  0.38452229  0.29250333    -0.15320
C3054       C  0.27139334  0.37487589  0.29643275     0.37010
N3055       N  0.27749948  0.36544065  0.31871045    -0.89570
H3056       H  0.30448280  0.36751349  0.28152886     0.18120
H3057       H  0.22582464  0.39897194  0.26733896     0.18110
N3058       N  0.25193266  0.40012069  0.22972197    -0.88600
H3059       H  0.29455147  0.35930315  0.31868360     0.35490
H3060       H  0.26693145  0.35109279  0.32173938     0.40590
H3061       H  0.26530469  0.39916362  0.21758655     0.40210
H3062       H  0.24783130  0.41768970  0.23156458     0.35090
C3063       C  0.39594750  0.28882846  0.27406477    -0.26640
C3064       C  0.38104446  0.28629755  0.25511191    -0.14710
C3065       C  0.36916502  0.26519003  0.25222682     0.35920
C3066       C  0.37016515  0.24837861  0.26972208    -0.26080
C3067       C  0.38279264  0.25229141  0.29001740    -0.15320
C3068       C  0.39710717  0.27198949  0.29149199     0.37010
N3069       N  0.41201521  0.27533211  0.31110229    -0.89570
H3070       H  0.40595243  0.30454789  0.27589921     0.18120
H3071       H  0.35975258  0.23295219  0.26795040     0.18110
N3072       N  0.35513461  0.26104722  0.23230686    -0.88600
H3073       H  0.42103989  0.29092800  0.30965269     0.35490
H3074       H  0.42440839  0.26207130  0.31086986     0.40590
H3075       H  0.33819101  0.25802839  0.23789237     0.40210
H3076       H  0.36122946  0.24601563  0.22418726     0.35090
C3077       C  0.45878505  0.36484124  0.28400309    -0.26640
C3078       C  0.46331944  0.37296958  0.26158264    -0.14710
C3079       C  0.48567507  0.38110022  0.25611744     0.35920
C3080       C  0.50242744  0.38236885  0.27378780    -0.26080
C3081       C  0.49709825  0.37570290  0.29664115    -0.15320
C3082       C  0.47496645  0.36650084  0.30160786     0.37010
N3083       N  0.46832452  0.35972924  0.32471352    -0.89570
H3084       H  0.44200320  0.35821311  0.28862598     0.18120
H3085       H  0.51946205  0.38898838  0.26976603     0.18110
N3086       N  0.49119878  0.38824901  0.23289228    -0.88600
H3087       H  0.45271379  0.35065552  0.32471836     0.35490
H3088       H  0.46512187  0.37494165  0.33404341     0.40590
H3089       H  0.49002997  0.37364657  0.22226443     0.40210
H3090       H  0.50833310  0.39388203  0.23186816     0.35090
C3091       C  0.24053491  0.49489484  0.12764189    -0.26640
C3092       C  0.22091894  0.49661037  0.14192523    -0.14710
C3093       C  0.22015042  0.51370840  0.15930235     0.35920
C3094       C  0.23735759  0.53052658  0.16013341    -0.26080
C3095       C  0.25533079  0.53080457  0.14377592    -0.15320
C3096       C  0.25798612  0.51179914  0.12853152     0.37010
N3097       N  0.27757578  0.51034611  0.11320449    -0.89570
H3098       H  0.24157669  0.48130980  0.11476228     0.18120
H3099       H  0.23581140  0.54415631  0.17291944     0.18110
N3100       N  0.20141665  0.51463263  0.17561566    -0.88600
H3101       H  0.27652063  0.49559673  0.10277508     0.35490
H3102       H  0.29229868  0.50817208  0.12348373     0.40590
H3103       H  0.19317488  0.53072496  0.17394709     0.40210
H3104       H  0.20833610  0.51356472  0.19230028     0.35090
C3105       C  0.24006571  0.38997837  0.11588677    -0.26640
C3106       C  0.22444767  0.38239320  0.13329310    -0.14710
C3107       C  0.23353437  0.37317351  0.15383845     0.35920
C3108       C  0.25771872  0.37245654  0.15682901    -0.26080
C3109       C  0.27344105  0.38092536  0.13985757    -0.15320
C3110       C  0.26433444  0.38926680  0.11888827     0.37010
N3111       N  0.27953840  0.39712045  0.10082113    -0.89570
H3112       H  0.23323658  0.39703177  0.09988216     0.18120
H3113       H  0.26421818  0.36568626  0.17306103     0.18110
N3114       N  0.21832963  0.36543704  0.17199005    -0.88600
H3115       H  0.27002274  0.40317201  0.08665004     0.35490
H3116       H  0.28895017  0.38274355  0.09497750     0.40590
H3117       H  0.20947426  0.37995623  0.17832476     0.40210
H3118       H  0.22781647  0.35872637  0.18588611     0.35090
C3119       C  0.14676155  0.39267434  0.24128226    -0.26640
C3120       C  0.12684139  0.38324795  0.23143273    -0.14710
C3121       C  0.10923934  0.37488907  0.24652210     0.35920
C3122       C  0.11241032  0.37555436  0.27079515    -0.26080
C3123       C  0.13238162  0.38515505  0.28058006    -0.15320
C3124       C  0.14958702  0.39411342  0.26537349     0.37010
N3125       N  0.16997554  0.40549016  0.27375358    -0.89570
H3126       H  0.15967570  0.40049846  0.23011264     0.18120
H3127       H  0.09947915  0.36787287  0.28201969     0.18110
N3128       N  0.08799709  0.36548334  0.23782539    -0.88600
H3129       H  0.18406303  0.39450319  0.27061834     0.35490
H3130       H  0.16913409  0.40862466  0.29153980     0.40590
H3131       H  0.08795071  0.36487424  0.21974633     0.40210
H3132       H  0.07457797  0.37662046  0.24285479     0.35090
C3133       C  0.13138162  0.49633705  0.01860772    -0.26640
C3134       C  0.11782734  0.49995153  0.03846260    -0.14710
C3135       C  0.10195327  0.51854038  0.03906423     0.35920
C3136       C  0.10206850  0.53473295  0.02102261    -0.26080
C3137       C  0.11779783  0.53283559  0.00252023    -0.15320
C3138       C  0.13176756  0.51271357  0.00063737     0.37010
N3139       N  0.14753090  0.50959776  0.98161511    -0.89570
H3140       H  0.14320769  0.48175422  0.01786272     0.18120
H3141       H  0.09060593  0.54962095  0.02208140     0.18110
N3142       N  0.08644313  0.52142964  0.05839474    -0.88600
H3143       H  0.15455402  0.49285966  0.98174909     0.35490
H3144       H  0.16139512  0.52082642  0.98430683     0.40590
H3145       H  0.07522742  0.50727551  0.05853932     0.40210
H3146       H  0.07615196  0.53623672  0.05628713     0.35090
C3147       C  0.99682721  0.51909501  0.13411773    -0.26640
C3148       C  0.00259259  0.54240274  0.13019971    -0.14710
C3149       C  0.02557037  0.54811287  0.12396967     0.35920
C3150       C  0.04219601  0.53076654  0.12302584    -0.26080
C3151       C  0.03680657  0.50751434  0.12721107    -0.15320
C3152       C  0.01357283  0.50145755  0.13221463     0.37010
N3153       N  0.00613076  0.47787642  0.13476536    -0.89570
H3154       H  0.97917636  0.51447855  0.13836824     0.18120
H3155       H  0.05973320  0.53597094  0.11938881     0.18110
N3156       N  0.03236993  0.57159454  0.11908077    -0.88600
H3157       H  0.00358467  0.47469290  0.15242228     0.35490
H3158       H  0.01844837  0.46615237  0.12856307     0.40590
H3159       H  0.02555526  0.57587960  0.10286748     0.40210
H3160       H  0.05032050  0.57303750  0.11739726     0.35090
C3161       C  0.25784577  0.37067848  0.60281545    -0.26640
C3162       C  0.27211465  0.37453697  0.62229773    -0.14710
C3163       C  0.26114035  0.37794270  0.64401229     0.35920
C3164       C  0.23670765  0.37748467  0.64538043    -0.26080
C3165       C  0.22258719  0.37434537  0.62568623    -0.15320
C3166       C  0.23355618  0.37074365  0.60408521     0.37010
N3167       N  0.22088707  0.36612688  0.58319264    -0.89570
H3168       H  0.26573274  0.36791633  0.58597171     0.18120
H3169       H  0.22857881  0.37936234  0.66223125     0.18110
N3170       N  0.27385306  0.38260423  0.66483079    -0.88600
H3171       H  0.22439593  0.37953203  0.57150320     0.35490
H3172       H  0.20306882  0.36636666  0.58594788     0.40590
H3173       H  0.29162419  0.38284171  0.66181174     0.40210
H3174       H  0.27078773  0.36894948  0.67635365     0.35090
C3175       C  0.21280048  0.23406080  0.63709264    -0.26640
C3176       C  0.21764103  0.25647069  0.62929011    -0.14710
C3177       C  0.24035764  0.26263161  0.62303512     0.35920
C3178       C  0.25765726  0.24540268  0.62301485    -0.26080
C3179       C  0.25225877  0.22260354  0.62934909    -0.15320
C3180       C  0.22996376  0.21712260  0.63759906     0.37010
N3181       N  0.22479269  0.19428823  0.64620341    -0.89570
H3182       H  0.19546736  0.22971430  0.64279545     0.18120
H3183       H  0.27501889  0.24948448  0.61722482     0.18110
N3184       N  0.24553822  0.28599060  0.61616510    -0.88600
H3185       H  0.20748524  0.19315078  0.65138364     0.35490
H3186       H  0.23478049  0.19154189  0.66103992     0.40590
H3187       H  0.23644790  0.28948604  0.60091146     0.40210
H3188       H  0.26311515  0.28757170  0.61216826     0.35090
C3189       C  0.14835008  0.36782959  0.49691536    -0.26640
C3190       C  0.12954473  0.37161894  0.48180651    -0.14710
C3191       C  0.10766215  0.37652877  0.49140785     0.35920
C3192       C  0.10500525  0.37696043  0.51579679    -0.26080
C3193       C  0.12386775  0.37313484  0.53084205    -0.15320
C3194       C  0.14567213  0.36814723  0.52119180     0.37010
N3195       N  0.16480668  0.36249999  0.53606315    -0.89570
H3196       H  0.16535160  0.36449788  0.48964015     0.18120
H3197       H  0.08794964  0.37966419  0.52318849     0.18110
N3198       N  0.08837001  0.38135599  0.47649586    -0.88600
H3199       H  0.17952557  0.35884564  0.52619402     0.35490
H3200       H  0.16080968  0.34713818  0.54480413     0.40590
H3201       H  0.09194796  0.39669652  0.46753541     0.40210
H3202       H  0.07345805  0.38453101  0.48630954     0.35090
C3203       C  0.99476240  0.23958520  0.63507642    -0.26640
C3204       C  0.00112395  0.21661325  0.63027877    -0.14710
C3205       C  0.02432410  0.21109154  0.62522804     0.35920
C3206       C  0.04100668  0.22818238  0.62664212    -0.26080
C3207       C  0.03509823  0.25088985  0.63281851    -0.15320
C3208       C  0.01158506  0.25696838  0.63644207     0.37010
N3209       N  0.00425649  0.28002309  0.64253683    -0.89570
H3210       H  0.97682062  0.24385254  0.63864215     0.18120
H3211       H  0.05879513  0.22354496  0.62275429     0.18110
N3212       N  0.03104429  0.18816486  0.61830524    -0.88600
H3213       H  0.99407873  0.28637267  0.62896740     0.35490
H3214       H  0.01819735  0.29127049  0.64427577     0.40590
H3215       H  0.04341470  0.18201809  0.63001724     0.40210
H3216       H  0.03879943  0.18919475  0.60194597     0.35090
C3217       C  0.62059719  0.38755962  0.24423188    -0.26640
C3218       C  0.62266695  0.36487631  0.23582553    -0.14710
C3219       C  0.62238508  0.34628048  0.25218912     0.35920
C3220       C  0.62155949  0.35079001  0.27613759    -0.26080
C3221       C  0.61946465  0.37331061  0.28447161    -0.15320
C3222       C  0.61871808  0.39194160  0.26833158     0.37010
N3223       N  0.61605453  0.41530961  0.27653937    -0.89570
H3224       H  0.62085679  0.40187694  0.23206768     0.18120
H3225       H  0.62104301  0.33650110  0.28834356     0.18110
N3226       N  0.62205648  0.32263586  0.24447814    -0.88600
H3227       H  0.61570345  0.42697041  0.26265376     0.35490
H3228       H  0.63069596  0.41927182  0.28632301     0.40590
H3229       H  0.60653030  0.32016520  0.23560623     0.40210
H3230       H  0.62214776  0.31117052  0.25852171     0.35090
C3231       C  0.49022714  0.24358208  0.14812288    -0.26640
C3232       C  0.49401308  0.22361832  0.13482341    -0.14710
C3233       C  0.51395746  0.22162335  0.12082304     0.35920
C3234       C  0.53064088  0.23873564  0.12180328    -0.26080
C3235       C  0.52773508  0.25789970  0.13630984    -0.15320
C3236       C  0.50703588  0.26107573  0.14881020     0.37010
N3237       N  0.50370298  0.28138888  0.16281103    -0.89570
H3238       H  0.47464138  0.24509718  0.15851067     0.18120
H3239       H  0.54633045  0.23675517  0.11162715     0.18110
N3240       N  0.51785075  0.20230395  0.10568741    -0.88600
H3241       H  0.48765510  0.28079670  0.17119553     0.35490
H3242       H  0.50310706  0.29566670  0.15164434     0.40590
H3243       H  0.50369835  0.20085654  0.09456152     0.40210
H3244       H  0.51925523  0.18716262  0.11551684     0.35090
C3245       C  0.48658650  0.35790616  0.15477885    -0.26640
C3246       C  0.47502740  0.37482387  0.14162972    -0.14710
C3247       C  0.48848589  0.39152427  0.12962674     0.35920
C3248       C  0.51287280  0.39052477  0.13080501    -0.26080
C3249       C  0.52435803  0.37362656  0.14411253    -0.15320
C3250       C  0.51083540  0.35712163  0.15628407     0.37010
N3251       N  0.52112566  0.33914356  0.17024005    -0.89570
H3252       H  0.47656555  0.34578344  0.16504016     0.18120
H3253       H  0.52295223  0.40261144  0.12057831     0.18110
N3254       N  0.47802804  0.40997865  0.11647510    -0.88600
H3255       H  0.51520660  0.34139302  0.18723001     0.35490
H3256       H  0.53908432  0.34071632  0.17098510     0.40590
H3257       H  0.46002858  0.40860708  0.11636740     0.40210
H3258       H  0.48337016  0.40808390  0.09925571     0.35090
C3259       C  0.61034243  0.26143175  0.02006436    -0.26640
C3260       C  0.62601030  0.25930022  0.03842516    -0.14710
C3261       C  0.64384523  0.24262100  0.03733043     0.35920
C3262       C  0.64412228  0.22676871  0.01905309    -0.26080
C3263       C  0.62680733  0.22706596  0.00207085    -0.15320
C3264       C  0.61026164  0.24523103  0.00197112     0.37010
N3265       N  0.59238978  0.24630329  0.98476041    -0.89570
H3266       H  0.59682742  0.27447931  0.02081404     0.18120
H3267       H  0.65721298  0.21324825  0.01879753     0.18110
N3268       N  0.66103325  0.24125709  0.05526155    -0.88600
H3269       H  0.58266464  0.26153935  0.98647071     0.35490
H3270       H  0.58099896  0.23267784  0.98810430     0.40590
H3271       H  0.67053796  0.25661441  0.05476468     0.40210
H3272       H  0.67272762  0.22775342  0.05201718     0.35090
C3273       C  0.22384712  0.13731436  0.71283113    -0.26640
C3274       C  0.24612462  0.12935151  0.71817851    -0.14710
C3275       C  0.25140872  0.12215637  0.74101162     0.35920
C3276       C  0.23381579  0.12252529  0.75777185    -0.26080
C3277       C  0.21132046  0.12956364  0.75199500    -0.15320
C3278       C  0.20640433  0.13765704  0.72949193     0.37010
N3279       N  0.18379620  0.14643334  0.72368772    -0.89570
H3280       H  0.22000842  0.14341272  0.69547779     0.18120
H3281       H  0.23754189  0.11654410  0.77516401     0.18110
N3282       N  0.27394103  0.11384873  0.74766524    -0.88600
H3283       H  0.18307629  0.15142601  0.70627717     0.35490
H3284       H  0.18097875  0.16144219  0.73344574     0.40590
H3285       H  0.28553236  0.11392466  0.73378764     0.40210
H3286       H  0.27221672  0.09654014  0.75274944     0.35090
C3287       C  0.14351829  0.03663845  0.74095116    -0.26640
C3288       C  0.12474399  0.03854960  0.75627657    -0.14710
C3289       C  0.10776556  0.02103017  0.75671746     0.35920
C3290       C  0.10880510  0.00327008  0.74017643    -0.26080
C3291       C  0.12654090  0.00259872  0.72355307    -0.15320
C3292       C  0.14483492  0.01869658  0.72482772     0.37010
N3293       N  0.16496421  0.01739965  0.71017770    -0.89570
H3294       H  0.15715680  0.04944649  0.74119073     0.18120
H3295       H  0.09490794  0.99078044  0.73939438     0.18110
N3296       N  0.08875582  0.02209410  0.77280943    -0.88600
H3297       H  0.16394826  0.03091101  0.69812321     0.35490
H3298       H  0.16583634  0.00179057  0.70111148     0.40590
H3299       H  0.09548505  0.01914786  0.78935498     0.40210
H3300       H  0.07707610  0.00867631  0.76975139     0.35090
C3301       C  0.10349389  0.25228186  0.73580375    -0.26640
C3302       C  0.12423727  0.25531351  0.72361873    -0.14710
C3303       C  0.14439703  0.24309723  0.73041383     0.35920
C3304       C  0.14318993  0.22816248  0.74940613    -0.26080
C3305       C  0.12228263  0.22452035  0.76111030    -0.15320
C3306       C  0.10220916  0.23690072  0.75451758     0.37010
N3307       N  0.08029372  0.23398076  0.76600923    -0.89570
H3308       H  0.08807535  0.26161692  0.73045794     0.18120
H3309       H  0.15842242  0.21820673  0.75417265     0.18110
N3310       N  0.16605012  0.24463895  0.71811318    -0.88600
H3311       H  0.07563603  0.24998073  0.77315908     0.35490
H3312       H  0.08151547  0.22240521  0.77987562     0.40590
H3313       H  0.16507408  0.25565248  0.70381855     0.40210
H3314       H  0.16987731  0.22818151  0.71153086     0.35090
C3315       C  0.99182375  0.13745412  0.74415546    -0.26640
C3316       C  0.99920752  0.13057782  0.72202375    -0.14710
C3317       C  0.02232734  0.12371489  0.71822601     0.35920
C3318       C  0.03814918  0.12599679  0.73608854    -0.26080
C3319       C  0.03130629  0.13453222  0.75772920    -0.15320
C3320       C  0.00787671  0.13943959  0.76229404     0.37010
N3321       N  0.00067180  0.14674026  0.78499737    -0.89570
H3322       H  0.97383672  0.14206014  0.74699462     0.18120
H3323       H  0.05603071  0.12109678  0.73305679     0.18110
N3324       N  0.02965830  0.11443850  0.69624804    -0.88600
H3325       H  0.98278751  0.14953864  0.78540453     0.35490
H3326       H  0.00841193  0.16271587  0.78834030     0.40590
H3327       H  0.02097113  0.09879367  0.69378499     0.40210
H3328       H  0.04733433  0.11049663  0.69635385     0.35090
C3329       C  0.73692131  0.72127829  0.64269829    -0.26640
C3330       C  0.75663419  0.72452800  0.62903006    -0.14710
C3331       C  0.76075586  0.74614164  0.61827598     0.35920
C3332       C  0.74366043  0.76340112  0.61973591    -0.26080
C3333       C  0.72308062  0.75930988  0.63190568    -0.15320
C3334       C  0.72011619  0.73839331  0.64428142     0.37010
N3335       N  0.70013260  0.73391684  0.65836114    -0.89570
H3336       H  0.73418459  0.70492667  0.65158121     0.18120
H3337       H  0.74598899  0.77960379  0.61050464     0.18110
N3338       N  0.78136000  0.75078515  0.60507026    -0.88600
H3339       H  0.68548991  0.73298309  0.64787949     0.35490
H3340       H  0.69807744  0.74751361  0.67014668     0.40590
H3341       H  0.79270606  0.73665198  0.60519942     0.40210
H3342       H  0.79000986  0.76436462  0.61323718     0.35090
C3343       C  0.74933405  0.51872849  0.62886021    -0.26640
C3344       C  0.74301347  0.54221022  0.62719107    -0.14710
C3345       C  0.71938300  0.54833075  0.62610457     0.35920
C3346       C  0.70261509  0.53125604  0.62799590    -0.26080
C3347       C  0.70870788  0.50791493  0.63057209    -0.15320
C3348       C  0.73229182  0.50137120  0.63042554     0.37010
N3349       N  0.73882923  0.47741097  0.63275291    -0.89570
H3350       H  0.76748789  0.51399656  0.62942936     0.18120
H3351       H  0.68459768  0.53643647  0.62710119     0.18110
N3352       N  0.71218386  0.57188547  0.62258826    -0.88600
H3353       H  0.75683312  0.47573460  0.63346338     0.35490
H3354       H  0.73364591  0.46884287  0.61771765     0.40590
H3355       H  0.70158687  0.57674913  0.63648595     0.40210
H3356       H  0.70232110  0.57266489  0.60744588     0.35090
C3357       C  0.75472674  0.62155739  0.74092546    -0.26640
C3358       C  0.74674815  0.62754455  0.71873778    -0.14710
C3359       C  0.72334695  0.63352635  0.71535149     0.35920
C3360       C  0.70796724  0.63136738  0.73374798    -0.26080
C3361       C  0.71545139  0.62371392  0.75551468    -0.15320
C3362       C  0.73909418  0.61957627  0.75956077     0.37010
N3363       N  0.74695432  0.61302296  0.78225577    -0.89570
H3364       H  0.77290228  0.61764356  0.74346617     0.18120
H3365       H  0.68990170  0.63565403  0.73101873     0.18110
N3366       N  0.71528136  0.64193784  0.69330166    -0.88600
H3367       H  0.76490980  0.61072302  0.78225341     0.35490
H3368       H  0.73973659  0.59692155  0.78624153     0.40590
H3369       H  0.72336450  0.65780260  0.69012953     0.40210
H3370       H  0.69748936  0.64527683  0.69375206     0.35090
C3371       C  0.73481672  0.65066280  0.53740409    -0.26640
C3372       C  0.75469728  0.63692549  0.53441682    -0.14710
C3373       C  0.75734601  0.62414488  0.51365075     0.35920
C3374       C  0.73873235  0.62302314  0.49802731    -0.26080
C3375       C  0.71790407  0.63478936  0.50252707    -0.15320
C3376       C  0.71650762  0.64972757  0.52178583     0.37010
N3377       N  0.69624955  0.66352720  0.52604252    -0.89570
H3378       H  0.73283583  0.66143410  0.55265477     0.18120
H3379       H  0.74023803  0.61215390  0.48283145     0.18110
N3380       N  0.77843319  0.61186780  0.50867427    -0.88600
H3381       H  0.70118042  0.68091905  0.52668156     0.35490
H3382       H  0.68956633  0.65897028  0.54227295     0.40590
H3383       H  0.79135416  0.62426608  0.50627275     0.40210
H3384       H  0.77716037  0.60284935  0.49303827     0.35090
C3385       C  0.74923865  0.23509338  0.13750720    -0.26640
C3386       C  0.74657391  0.21441746  0.12513734    -0.14710
C3387       C  0.72778058  0.21205893  0.10979181     0.35920
C3388       C  0.71074720  0.22936602  0.10911329    -0.26080
C3389       C  0.71200952  0.24889987  0.12348720    -0.15320
C3390       C  0.73209302  0.25237631  0.13700180     0.37010
N3391       N  0.73465464  0.27275021  0.15104572    -0.89570
H3392       H  0.76390806  0.23719460  0.14890219     0.18120
H3393       H  0.69603057  0.22710060  0.09781609     0.18110
N3394       N  0.72568069  0.19181880  0.09545197    -0.88600
H3395       H  0.75129420  0.27349275  0.15805066     0.35490
H3396       H  0.72339674  0.27111017  0.16515709     0.40590
H3397       H  0.73960829  0.19177908  0.08385149     0.40210
H3398       H  0.71064848  0.19264839  0.08544642     0.35090
C3399       C  0.73539704  0.13487732  0.00673566    -0.26640
C3400       C  0.71212305  0.12991593  0.01130742    -0.14710
C3401       C  0.70572215  0.11990371  0.03278503     0.35920
C3402       C  0.72218365  0.11747976  0.04997755    -0.26080
C3403       C  0.74503826  0.12416868  0.04613054    -0.15320
C3404       C  0.75214905  0.13179191  0.02406970     0.37010
N3405       N  0.77599651  0.13714692  0.01970494    -0.89570
H3406       H  0.74035239  0.14158773  0.98989434     0.18120
H3407       H  0.71696488  0.11057961  0.06667537     0.18110
N3408       N  0.68290451  0.11146939  0.03757626    -0.88600
H3409       H  0.77814642  0.14317967  0.00274407     0.35490
H3410       H  0.78527290  0.12158776  0.02080206     0.40590
H3411       H  0.67786386  0.10038564  0.02422454     0.40210
H3412       H  0.67134199  0.12533748  0.03885235     0.35090
C3413       C  0.73912889  0.99202185  0.14441275    -0.26640
C3414       C  0.71798068  0.99812328  0.13424256    -0.14710
C3415       C  0.71476270  0.02027416  0.12449690     0.35920
C3416       C  0.73216690  0.03662716  0.12677819    -0.26080
C3417       C  0.75269874  0.03123503  0.13842241    -0.15320
C3418       C  0.75674381  0.00847815  0.14663039     0.37010
N3419       N  0.77800135  0.00168077  0.15765508    -0.89570
H3420       H  0.74156440  0.97478354  0.15152243     0.18120
H3421       H  0.72952706  0.05390016  0.11979919     0.18110
N3422       N  0.69361159  0.02617009  0.11272584    -0.88600
H3423       H  0.77415778  0.99741959  0.17485042     0.35490
H3424       H  0.78980469  0.01529449  0.15813157     0.40590
H3425       H  0.69251280  0.01566129  0.09803660     0.40210
H3426       H  0.69397437  0.04330487  0.10681034     0.35090
C3427       C  0.10629799  0.51369149  0.37863456    -0.26640
C3428       C  0.12571835  0.52842975  0.37768519    -0.14710
C3429       C  0.14788986  0.51847270  0.37613402     0.35920
C3430       C  0.15021691  0.49414353  0.37622163    -0.26080
C3431       C  0.13083798  0.47933179  0.37731970    -0.15320
C3432       C  0.10862868  0.48928344  0.37874752     0.37010
N3433       N  0.08863969  0.47471791  0.38075300    -0.89570
H3434       H  0.08914222  0.52135083  0.37900620     0.18120
H3435       H  0.16741307  0.48661576  0.37534528     0.18110
N3436       N  0.16786246  0.53302062  0.37360959    -0.88600
H3437       H  0.07356984  0.48478722  0.38156917     0.35490
H3438       H  0.08979053  0.46587939  0.39654409     0.40590
H3439       H  0.16640392  0.54178645  0.35780260     0.40210
H3440       H  0.18290093  0.52296217  0.37243117     0.35090
C3441       C  0.23661247  0.64237912  0.38203011    -0.26640
C3442       C  0.22247128  0.62286859  0.37845021    -0.14710
C3443       C  0.23323022  0.60107028  0.37527608     0.35920
C3444       C  0.25749635  0.59953339  0.37533025    -0.26080
C3445       C  0.27173948  0.61908013  0.37844130    -0.15320
C3446       C  0.26095449  0.64080953  0.38237578     0.37010
N3447       N  0.27376838  0.66144608  0.38746455    -0.89570
H3448       H  0.22858584  0.65930785  0.38383727     0.18120
H3449       H  0.26539195  0.58262655  0.37283236     0.18110
N3450       N  0.22028967  0.58033507  0.37078361    -0.88600
H3451       H  0.27117523  0.67308403  0.37380166     0.35490
H3452       H  0.29148254  0.65824272  0.38840237     0.40590
H3453       H  0.20250077  0.58339721  0.37141709     0.40210
H3454       H  0.22387334  0.56859148  0.38413585     0.35090
C3455       C  0.21073121  0.63150202  0.23695617    -0.26640
C3456       C  0.21573850  0.62272028  0.25898396    -0.14710
C3457       C  0.23888045  0.61739155  0.26509231     0.35920
C3458       C  0.25622137  0.61943462  0.24814788    -0.26080
C3459       C  0.25067447  0.62681257  0.22569991    -0.15320
C3460       C  0.22795184  0.63373262  0.22036349     0.37010
N3461       N  0.22227884  0.64301142  0.19800649    -0.89570
H3462       H  0.19323726  0.63665683  0.23248281     0.18120
H3463       H  0.27382683  0.61436035  0.25222625     0.18110
N3464       N  0.24522846  0.60897083  0.28767327    -0.88600
H3465       H  0.21527905  0.65959626  0.20031078     0.35490
H3466       H  0.20954462  0.63255920  0.19065174     0.40590
H3467       H  0.23089316  0.60748392  0.29859104     0.40210
H3468       H  0.25614194  0.62124375  0.29514606     0.35090
C3469       C  0.10727399  0.53024138  0.24779511    -0.26640
C3470       C  0.12644298  0.53265932  0.26228662    -0.14710
C3471       C  0.14638619  0.51887013  0.25870067     0.35920
C3472       C  0.14691809  0.50350166  0.23996750    -0.26080
C3473       C  0.12810803  0.50190657  0.22483247    -0.15320
C3474       C  0.10786141  0.51521789  0.22892242     0.37010
N3475       N  0.08815691  0.51509856  0.21373451    -0.89570
H3476       H  0.09218962  0.54121991  0.25032657     0.18120
H3477       H  0.16230980  0.49312094  0.23689945     0.18110
N3478       N  0.16632138  0.52014128  0.27347304    -0.88600
H3479       H  0.07421252  0.50819271  0.22297328     0.35490
H3480       H  0.09066643  0.50469296  0.19920503     0.40590
H3481       H  0.16364415  0.53156635  0.28723710     0.40210
H3482       H  0.18000417  0.52669913  0.26360258     0.35090
C3483       C  0.99202634  0.63978204  0.24841261    -0.26640
C3484       C  0.99591438  0.63091720  0.22619111    -0.14710
C3485       C  0.01739882  0.62078075  0.22043779     0.35920
C3486       C  0.03518122  0.62108546  0.23663711    -0.26080
C3487       C  0.03178318  0.63080902  0.25857021    -0.15320
C3488       C  0.00985151  0.63997242  0.26482145     0.37010
N3489       N  0.00521979  0.65016893  0.28709934    -0.89570
H3490       H  0.97537792  0.64738695  0.25271787     0.18120
H3491       H  0.05181206  0.61352328  0.23216098     0.18110
N3492       N  0.02106795  0.61032322  0.19809209    -0.88600
H3493       H  0.00088444  0.66757323  0.28436593     0.35490
H3494       H  0.01985730  0.65019061  0.29760095     0.40590
H3495       H  0.01000402  0.59610156  0.19688212     0.40210
H3496       H  0.03792681  0.60382327  0.19661844     0.35090
C3497       C  0.09888091  0.72692862  0.25112881    -0.26640
C3498       C  0.12068930  0.71884881  0.25796642    -0.14710
C3499       C  0.14088929  0.72964059  0.24965477     0.35920
C3500       C  0.13881594  0.74772900  0.23358253    -0.26080
C3501       C  0.11702607  0.75496398  0.22572994    -0.15320
C3502       C  0.09681038  0.74509061  0.23509075     0.37010
N3503       N  0.07436604  0.75361327  0.22843671    -0.89570
H3504       H  0.08348442  0.71860147  0.25784668     0.18120
H3505       H  0.15428406  0.75529673  0.22615783     0.18110
N3506       N  0.16335831  0.72108399  0.25618848    -0.88600
H3507       H  0.06142039  0.74533987  0.23800927     0.35490
H3508       H  0.07161576  0.74910204  0.21116071     0.40590
H3509       H  0.16569021  0.72489265  0.27371721     0.40210
H3510       H  0.17635254  0.72994381  0.24723382     0.35090
C3511       C  0.13226261  0.73852664  0.00410612    -0.26640
C3512       C  0.12070298  0.71771865  0.00852671    -0.14710
C3513       C  0.10756701  0.71499604  0.02886902     0.35920
C3514       C  0.10756000  0.73258709  0.04535584    -0.26080
C3515       C  0.12003713  0.75297021  0.04163130    -0.15320
C3516       C  0.13212416  0.75637104  0.02055574     0.37010
N3517       N  0.14489425  0.77712413  0.01557218    -0.89570
H3518       H  0.14207217  0.74058410  0.98820470     0.18120
H3519       H  0.09793750  0.73031145  0.06135355     0.18110
N3520       N  0.09433789  0.69431691  0.03263424    -0.88600
H3521       H  0.16236728  0.77253744  0.01421867     0.35490
H3522       H  0.14362923  0.78912724  0.02901262     0.40590
H3523       H  0.08147660  0.69410000  0.01995609     0.40210
H3524       H  0.08581367  0.69493631  0.04862960     0.35090
C3525       C  0.24912303  0.73748400  0.12806098    -0.26640
C3526       C  0.24281428  0.71404939  0.12951010    -0.14710
C3527       C  0.21918894  0.70798539  0.13112589     0.35920
C3528       C  0.20255311  0.72538247  0.13094145    -0.26080
C3529       C  0.20862850  0.74869494  0.12876990    -0.15320
C3530       C  0.23211650  0.75502328  0.12765691     0.37010
N3531       N  0.23854215  0.77895697  0.12543978    -0.89570
H3532       H  0.26725533  0.74205326  0.12701205     0.18120
H3533       H  0.18457016  0.72049773  0.13263077     0.18110
N3534       N  0.21197973  0.68426185  0.13359389    -0.88600
H3535       H  0.25648958  0.78046700  0.12378377     0.35490
H3536       H  0.23407184  0.78729530  0.14088696     0.40590
H3537       H  0.21322381  0.67659883  0.11723299     0.40210
H3538       H  0.19451537  0.68329585  0.13825574     0.35090
C3539       C  0.98945991  0.74373558  0.14838833    -0.26640
C3540       C  0.99264458  0.72396066  0.13467111    -0.14710
C3541       C  0.01195941  0.72219767  0.11975942     0.35920
C3542       C  0.02855601  0.73947770  0.12002639    -0.26080
C3543       C  0.02617976  0.75854342  0.13475855    -0.15320
C3544       C  0.00618121  0.76133054  0.14842973     0.37010
N3545       N  0.00352510  0.78136235  0.16296249    -0.89570
H3546       H  0.97443201  0.74501785  0.15959864     0.18120
H3547       H  0.04381125  0.73767522  0.10917667     0.18110
N3548       N  0.01534354  0.70289779  0.10448126    -0.88600
H3549       H  0.98793638  0.78054863  0.17216025     0.35490
H3550       H  0.00234910  0.79586469  0.15212940     0.40590
H3551       H  0.00078914  0.70141977  0.09389327     0.40210
H3552       H  0.01709403  0.68776022  0.11427045     0.35090
C3553       C  0.63143325  0.23942888  0.39284452    -0.26640
C3554       C  0.61614976  0.22663057  0.37897459    -0.14710
C3555       C  0.59974216  0.23874818  0.36545772     0.35920
C3556       C  0.59838283  0.26314551  0.36673463    -0.26080
C3557       C  0.61361211  0.27599976  0.38056971    -0.15320
C3558       C  0.63007873  0.26392866  0.39408082     0.37010
N3559       N  0.64513477  0.27653987  0.40922784    -0.89570
H3560       H  0.64471082  0.23027625  0.40247386     0.18120
H3561       H  0.58507522  0.27224953  0.35709010     0.18110
N3562       N  0.58451602  0.22620418  0.35039422    -0.88600
H3563       H  0.65636487  0.26518096  0.41782215     0.35490
H3564       H  0.63487274  0.28431697  0.42200987     0.40590
H3565       H  0.59459845  0.21861609  0.33736070     0.40210
H3566       H  0.57308778  0.23756480  0.34206749     0.35090
C3567       C  0.51149841  0.14877129  0.36317875    -0.26640
C3568       C  0.52307383  0.13327963  0.37797837    -0.14710
C3569       C  0.50981032  0.11901345  0.39279706     0.35920
C3570       C  0.48540240  0.12129846  0.39317539    -0.26080
C3571       C  0.47390012  0.13681218  0.37827293    -0.15320
C3572       C  0.48721232  0.15078750  0.36322831     0.37010
N3573       N  0.47595630  0.16680882  0.34774341    -0.89570
H3574       H  0.52151011  0.15879083  0.35084449     0.18120
H3575       H  0.47533724  0.11127120  0.40544425     0.18110
N3576       N  0.52114274  0.10208036  0.40717635    -0.88600
H3577       H  0.48810976  0.17512422  0.33720870     0.35490
H3578       H  0.46813783  0.17978166  0.35768828     0.40590
H3579       H  0.52884603  0.08978880  0.39628396     0.40210
H3580       H  0.50900862  0.09316527  0.41722734     0.35090
C3581       C  0.60998664  0.24015839  0.26326789    -0.26640
C3582       C  0.62346116  0.22014486  0.26036287    -0.14710
C3583       C  0.63658791  0.21688929  0.24001005     0.35920
C3584       C  0.63536992  0.23349445  0.22244345    -0.26080
C3585       C  0.62117656  0.25302568  0.22484772    -0.15320
C3586       C  0.60842916  0.25662267  0.24536276     0.37010
N3587       N  0.59342365  0.27641424  0.24755868    -0.89570
H3588       H  0.59979873  0.24228744  0.27892402     0.18120
H3589       H  0.64509404  0.23096352  0.20654404     0.18110
N3590       N  0.65056961  0.19639440  0.23706805    -0.88600
H3591       H  0.58533470  0.27649900  0.26378864     0.35490
H3592       H  0.58033513  0.27483144  0.23521410     0.40590
H3593       H  0.66359286  0.19675941  0.24958838     0.40210
H3594       H  0.65884670  0.19652553  0.22093299     0.35090
C3595       C  0.71388701  0.14037708  0.24212353    -0.26640
C3596       C  0.71532249  0.12557900  0.26124895    -0.14710
C3597       C  0.73504701  0.11166753  0.26472111     0.35920
C3598       C  0.75286793  0.11215488  0.24816648    -0.26080
C3599       C  0.75107768  0.12647144  0.22863597    -0.15320
C3600       C  0.73163668  0.14122323  0.22582915     0.37010
N3601       N  0.72923855  0.15719909  0.20679459    -0.89570
H3602       H  0.69877316  0.15135405  0.23981229     0.18120
H3603       H  0.76773899  0.10079038  0.25002855     0.18110
N3604       N  0.73635554  0.09642405  0.28437542    -0.88600
H3605       H  0.71587572  0.15125425  0.19622443     0.35490
H3606       H  0.74415303  0.15814980  0.19664471     0.40590
H3607       H  0.73678774  0.10679687  0.29915501     0.40210
H3608       H  0.75188407  0.08705091  0.28412532     0.35090
C3609       C  0.49143093  0.13314172  0.24866241    -0.26640
C3610       C  0.49745103  0.13185602  0.22509453    -0.14710
C3611       C  0.52093455  0.12940922  0.21859980     0.35920
C3612       C  0.53787326  0.13005379  0.23556456    -0.26080
C3613       C  0.53215345  0.13246236  0.25898909    -0.15320
C3614       C  0.50873777  0.13341124  0.26584011     0.37010
N3615       N  0.50271663  0.13496582  0.28996957    -0.89570
H3616       H  0.47336864  0.13452259  0.25356865     0.18120
H3617       H  0.55578545  0.12814592  0.23033202     0.18110
N3618       N  0.52760880  0.12584317  0.19480269    -0.88600
H3619       H  0.48474235  0.13545226  0.29202486     0.35490
H3620       H  0.50897492  0.15073276  0.29618966     0.40590
H3621       H  0.52121500  0.10971718  0.18972898     0.40210
H3622       H  0.54559710  0.12492075  0.19302747     0.35090
C3623       C  0.61481556  0.00084162  0.24324328    -0.26640
C3624       C  0.63340742  0.00070287  0.22755173    -0.14710
C3625       C  0.65188278  0.01617695  0.23066273     0.35920
C3626       C  0.64992227  0.03352645  0.24745278    -0.26080
C3627       C  0.63005722  0.03542185  0.26132166    -0.15320
C3628       C  0.61280722  0.01823615  0.26008402     0.37010
N3629       N  0.59264890  0.01930270  0.27471222    -0.89570
H3630       H  0.60086600  0.98855718  0.24118227     0.18120
H3631       H  0.66359471  0.04618386  0.24910825     0.18110
N3632       N  0.67221406  0.01464221  0.21633067    -0.88600
H3633       H  0.58215164  0.00484886  0.27207934     0.35490
H3634       H  0.58289686  0.03372464  0.26957866     0.40590
H3635       H  0.68017712  0.99870386  0.21979397     0.40210
H3636       H  0.68410366  0.02746857  0.22077577     0.35090
C3637       C  0.13447062  0.23677208  0.36682699    -0.26640
C3638       C  0.12297059  0.22979901  0.38699114    -0.14710
C3639       C  0.11274455  0.24743532  0.40114980     0.35920
C3640       C  0.11626466  0.27104739  0.39623251    -0.26080
C3641       C  0.12927409  0.27794450  0.37712992    -0.15320
C3642       C  0.13715868  0.26053771  0.36139092     0.37010
N3643       N  0.14778028  0.26699365  0.33979244    -0.89570
H3644       H  0.14144396  0.22369234  0.35528384     0.18120
H3645       H  0.10958348  0.28401610  0.40809001     0.18110
N3646       N  0.09897317  0.24171319  0.42098110    -0.88600
H3647       H  0.15251401  0.25231845  0.33025720     0.35490
H3648       H  0.13534201  0.27584653  0.33002814     0.40590
H3649       H  0.08250406  0.24892484  0.41869299     0.40210
H3650       H  0.10640687  0.24950225  0.43549136     0.35090
C3651       C  0.25827335  0.15752567  0.39050239    -0.26640
C3652       C  0.27321869  0.13841527  0.38696434    -0.14710
C3653       C  0.26340643  0.11663088  0.38238990     0.35920
C3654       C  0.23902649  0.11425156  0.38265591    -0.26080
C3655       C  0.22414051  0.13331350  0.38673665    -0.15320
C3656       C  0.23400240  0.15517346  0.39074398     0.37010
N3657       N  0.21939540  0.17474319  0.39595683    -0.89570
H3658       H  0.26566757  0.17449201  0.39342379     0.18120
H3659       H  0.23153914  0.09722695  0.38042179     0.18110
N3660       N  0.27809427  0.09713969  0.37724551    -0.88600
H3661       H  0.22932393  0.18965608  0.39824533     0.35490
H3662       H  0.21126632  0.17152305  0.41184148     0.40590
H3663       H  0.28672469  0.10072381  0.36170680     0.40210
H3664       H  0.26815435  0.08235973  0.37428213     0.35090
C3665       C  0.11551189  0.24235287  0.50146860    -0.26640
C3666       C  0.13276480  0.22518275  0.50124748    -0.14710
C3667       C  0.15162951  0.22686500  0.51664969     0.35920
C3668       C  0.15089859  0.24343240  0.53418451    -0.26080
C3669       C  0.13216164  0.25881814  0.53623703    -0.15320
C3670       C  0.11510075  0.25940331  0.51875363     0.37010
N3671       N  0.09656354  0.27609600  0.51948434    -0.89570
H3672       H  0.10135356  0.24149539  0.48926047     0.18120
H3673       H  0.16476278  0.24372799  0.54677142     0.18110
N3674       N  0.17157130  0.21193942  0.51524039    -0.88600
H3675       H  0.08491643  0.27331434  0.50595884     0.35490
H3676       H  0.10380798  0.29240684  0.51653725     0.40590
H3677       H  0.17204602  0.20273623  0.49969260     0.40210
H3678       H  0.17064392  0.20004679  0.52889497     0.35090
C3679       C  0.23827413  0.14471074  0.50008703    -0.26640
C3680       C  0.21732791  0.13420641  0.50625679    -0.14710
C3681       C  0.21567876  0.12125214  0.52694381     0.35920
C3682       C  0.23433265  0.12063832  0.54190163    -0.26080
C3683       C  0.25467238  0.13260036  0.53671228    -0.15320
C3684       C  0.25720969  0.14400569  0.51518500     0.37010
N3685       N  0.27814094  0.15564597  0.50852720    -0.89570
H3686       H  0.23969743  0.15400718  0.48380914     0.18120
H3687       H  0.23266378  0.11132249  0.55816390     0.18110
N3688       N  0.19541772  0.10841457  0.53319186    -0.88600
H3689       H  0.28453219  0.14742126  0.49368421     0.35490
H3690       H  0.29091810  0.15387689  0.52115379     0.40590
H3691       H  0.19120678  0.09731735  0.51956122     0.40210
H3692       H  0.18171175  0.11988206  0.53613864     0.35090
C3693       C  0.02841499  0.10466981  0.51892942    -0.26640
C3694       C  0.03227184  0.12547563  0.50706933    -0.14710
C3695       C  0.01727146  0.14452573  0.51046520     0.35920
C3696       C  0.99880884  0.14240483  0.52603344    -0.26080
C3697       C  0.99551408  0.12193761  0.53870846    -0.15320
C3698       C  0.00996811  0.10249558  0.53451000     0.37010
N3699       N  0.00664934  0.08049937  0.54581774    -0.89570
H3700       H  0.03990465  0.09001789  0.51613520     0.18120
H3701       H  0.98799172  0.15739926  0.52949959     0.18110
N3702       N  0.02164974  0.16636959  0.49927313    -0.88600
H3703       H  0.00404377  0.06811897  0.53289185     0.35490
H3704       H  0.99157313  0.08039652  0.55579526     0.40590
H3705       H  0.03725934  0.17271930  0.50573710     0.40210
H3706       H  0.00891929  0.17855165  0.50363910     0.35090
C3707       C  0.09866478  0.03364395  0.51674710    -0.26640
C3708       C  0.11976879  0.03684717  0.50530188    -0.14710
C3709       C  0.13751214  0.02012045  0.50758625     0.35920
C3710       C  0.13471891  0.00210372  0.52370081    -0.26080
C3711       C  0.11444432  0.00041239  0.53704353    -0.15320
C3712       C  0.09556443  0.01526492  0.53212712     0.37010
N3713       N  0.07309116  0.01227343  0.54229765    -0.89570
H3714       H  0.08457710  0.04583309  0.51409513     0.18120
H3715       H  0.14904742  0.99037936  0.52697476     0.18110
N3716       N  0.15887174  0.02242983  0.49498645    -0.88600
H3717       H  0.07022176  0.02610069  0.55362842     0.35490
H3718       H  0.07201126  0.99681152  0.55163360     0.40590
H3719       H  0.15521514  0.01967420  0.47748035     0.40210
H3720       H  0.17056849  0.00940913  0.49978496     0.35090
C3721       C  0.86338256  0.76285770  0.60558839    -0.26640
C3722       C  0.87093344  0.77695885  0.62395611    -0.14710
C3723       C  0.87960248  0.76609030  0.64405883     0.35920
C3724       C  0.87948251  0.74157339  0.64577413    -0.26080
C3725       C  0.87146505  0.72745908  0.62758952    -0.15320
C3726       C  0.86304192  0.73839756  0.60737817     0.37010
N3727       N  0.85347321  0.72467778  0.58901483    -0.89570
H3728       H  0.85742259  0.77106941  0.58977371     0.18120
H3729       H  0.88499967  0.73338717  0.66175649     0.18110
N3730       N  0.88870635  0.77992026  0.66255179    -0.88600
H3731       H  0.84826814  0.73527753  0.57524934     0.35490
H3732       H  0.83848281  0.71679356  0.59535868     0.40590
H3733       H  0.90335713  0.78842640  0.65622219     0.40210
H3734       H  0.89434324  0.76933099  0.67615151     0.35090
C3735       C  0.76117882  0.88555161  0.64000125    -0.26640
C3736       C  0.77209516  0.87268609  0.62238766    -0.14710
C3737       C  0.75789815  0.86099338  0.60620425     0.35920
C3738       C  0.73350411  0.86225988  0.60808963    -0.26080
C3739       C  0.72255667  0.87524971  0.62553481    -0.15320
C3740       C  0.73668762  0.88655158  0.64201183     0.37010
N3741       N  0.72607835  0.89905645  0.66079485    -0.89570
H3742       H  0.77178445  0.89531726  0.65191106     0.18120
H3743       H  0.72290427  0.85236146  0.59627369     0.18110
N3744       N  0.76833462  0.84736590  0.58808087    -0.88600
H3745       H  0.73869518  0.90676780  0.67113351     0.35490
H3746       H  0.71755445  0.88705368  0.67133785     0.40590
H3747       H  0.77641513  0.85865234  0.57648069     0.40210
H3748       H  0.75566183  0.83876696  0.57854458     0.35090
C3749       C  0.98579614  0.89906007  0.61631439    -0.26640
C3750       C  0.97375765  0.88466879  0.63187771    -0.14710
C3751       C  0.98690876  0.86953615  0.64620594     0.35920
C3752       C  0.01135968  0.86942492  0.64469205    -0.26080
C3753       C  0.02327996  0.88369722  0.62893098    -0.15320
C3754       C  0.01020832  0.89894670  0.61490963     0.37010
N3755       N  0.02191587  0.91474976  0.59962963    -0.89570
H3756       H  0.97598520  0.90995614  0.60454702     0.18120
H3757       H  0.02117404  0.85855089  0.65646931     0.18110
N3758       N  0.97608792  0.85372265  0.66212740    -0.88600
H3759       H  0.00999205  0.92508812  0.59070109     0.35490
H3760       H  0.03069593  0.90488095  0.58719628     0.40590
H3761       H  0.95813169  0.85573950  0.66214285     0.40210
H3762       H  0.98157245  0.85807470  0.67879951     0.35090
C3763       C  0.89515430  0.98774079  0.62296490    -0.26640
C3764       C  0.87518857  0.97796463  0.63259868    -0.14710
C3765       C  0.85747736  0.99318868  0.64064589     0.35920
C3766       C  0.86048330  0.01745694  0.63936358    -0.26080
C3767       C  0.88044092  0.02717775  0.62952268    -0.15320
C3768       C  0.89789856  0.01185520  0.62104931     0.37010
N3769       N  0.91846383  0.02012741  0.60970800    -0.89570
H3770       H  0.90818088  0.97647464  0.61536522     0.18120
H3771       H  0.84742200  0.02876352  0.64681212     0.18110
N3772       N  0.83623350  0.98462036  0.65033221    -0.88600
H3773       H  0.93250301  0.01672730  0.62059808     0.35490
H3774       H  0.91781440  0.03795968  0.60670386     0.40590
H3775       H  0.83631482  0.96655901  0.65147180     0.40210
H3776       H  0.82285450  0.98931203  0.63908529     0.35090
C3777       C  0.86594208  0.09465061  0.26598199    -0.26640
C3778       C  0.86973173  0.11322787  0.28142025    -0.14710
C3779       C  0.87285283  0.13563532  0.27180404     0.35920
C3780       C  0.87178659  0.13860951  0.24752650    -0.26080
C3781       C  0.86837619  0.11990593  0.23221497    -0.15320
C3782       C  0.86523781  0.09756725  0.24179285     0.37010
N3783       N  0.86019258  0.07757741  0.22787273    -0.89570
H3784       H  0.86344603  0.07733602  0.27283703     0.18120
H3785       H  0.87357149  0.15593718  0.24047063     0.18110
N3786       N  0.87800608  0.15560470  0.28566211    -0.88600
H3787       H  0.87386477  0.06581280  0.22985308     0.35490
H3788       H  0.85932430  0.08156316  0.21029008     0.40590
H3789       H  0.87952555  0.15150641  0.30315830     0.40210
H3790       H  0.86412048  0.16718197  0.28413127     0.35090
C3791       C  0.75930121  0.11930506  0.39731419    -0.26640
C3792       C  0.77293234  0.11566338  0.37728819    -0.14710
C3793       C  0.76148101  0.11294315  0.35586056     0.35920
C3794       C  0.73715926  0.11430046  0.35510596    -0.26080
C3795       C  0.72346163  0.11818274  0.37503080    -0.15320
C3796       C  0.73491777  0.12092703  0.39649675     0.37010
N3797       N  0.72277022  0.12635004  0.41757680    -0.89570
H3798       H  0.76778084  0.12090766  0.41395668     0.18120
H3799       H  0.72872115  0.11244186  0.33850355     0.18110
N3800       N  0.77365414  0.10785822  0.33468753    -0.88600
H3801       H  0.72519361  0.11247509  0.42900130     0.35490
H3802       H  0.70501479  0.12792834  0.41492645     0.40590
H3803       H  0.79146407  0.10664502  0.33720576     0.40210
H3804       H  0.77093449  0.12176027  0.32336005     0.35090
C3805       C  0.99151478  0.09944508  0.38380235    -0.26640
C3806       C  0.97528491  0.11789787  0.38612561    -0.14710
C3807       C  0.98390105  0.14007835  0.39116697     0.35920
C3808       C  0.00814331  0.14318842  0.39354372    -0.26080
C3809       C  0.02413528  0.12476239  0.39022846    -0.15320
C3810       C  0.01555397  0.10268379  0.38527803     0.37010
N3811       N  0.03116341  0.08337530  0.38256793    -0.89570
H3812       H  0.98559894  0.08193857  0.38110632     0.18120
H3813       H  0.01465514  0.16018036  0.39796908     0.18110
N3814       N  0.96821919  0.15927922  0.39381912    -0.88600
H3815       H  0.02211502  0.06827650  0.37852616     0.35490
H3816       H  0.03909732  0.08039922  0.39856157     0.40590
H3817       H  0.96028263  0.16213416  0.37780576     0.40210
H3818       H  0.97731906  0.17437613  0.39773475     0.35090
C3819       C  0.85595654  0.11899638  0.49799782    -0.26640
C3820       C  0.87361666  0.12587472  0.48236288    -0.14710
C3821       C  0.89419702  0.13475199  0.49142944     0.35920
C3822       C  0.89702091  0.13567993  0.51565707    -0.26080
C3823       C  0.87985157  0.12771887  0.53141435    -0.15320
C3824       C  0.85880092  0.11988844  0.52230261     0.37010
N3825       N  0.84050463  0.11270202  0.53754376    -0.89570
H3826       H  0.83992442  0.11223277  0.49115315     0.18120
H3827       H  0.91328636  0.14213025  0.52217520     0.18110
N3828       N  0.91255627  0.14185304  0.47618164    -0.88600
H3829       H  0.82627769  0.10699846  0.52802241     0.35490
H3830       H  0.83494504  0.12732352  0.54671613     0.40590
H3831       H  0.91873687  0.12706875  0.46768721     0.40210
H3832       H  0.92644749  0.14840295  0.48565068     0.35090
C3833       C  0.90290513  0.98209057  0.50606352    -0.26640
C3834       C  0.88231915  0.97698807  0.51783623    -0.14710
C3835       C  0.86274824  0.99144515  0.51490217     0.35920
C3836       C  0.86373722  0.00956886  0.49871679    -0.26080
C3837       C  0.88361164  0.01303077  0.48518202    -0.15320
C3838       C  0.90392036  0.00017628  0.48997671     0.37010
N3839       N  0.92554266  0.00445966  0.47835670    -0.89570
H3840       H  0.91814056  0.97140301  0.50878157     0.18120
H3841       H  0.84821155  0.01953099  0.49513538     0.18110
N3842       N  0.84143694  0.98663379  0.52685942    -0.88600
H3843       H  0.93778034  0.00830588  0.49106756     0.35490
H3844       H  0.92458907  0.01922062  0.46791826     0.40590
H3845       H  0.83501332  0.97105047  0.52034404     0.40210
H3846       H  0.82899000  0.99930308  0.52312365     0.35090
C3847       C  0.09402652  0.87334963  0.26599446    -0.26640
C3848       C  0.11278100  0.87377947  0.28161082    -0.14710
C3849       C  0.13539053  0.87429441  0.27250973     0.35920
C3850       C  0.13870091  0.87356013  0.24821179    -0.26080
C3851       C  0.11991590  0.87273376  0.23264329    -0.15320
C3852       C  0.09733036  0.87246386  0.24174140     0.37010
N3853       N  0.07790762  0.87026292  0.22642064    -0.89570
H3854       H  0.07660789  0.87322200  0.27287465     0.18120
H3855       H  0.15615168  0.87302367  0.24131131     0.18110
N3856       N  0.15485359  0.87584001  0.28783391    -0.88600
H3857       H  0.06244395  0.87019059  0.23582059     0.35490
H3858       H  0.07911925  0.85406820  0.21839502     0.40590
H3859       H  0.15378461  0.89181331  0.29630542     0.40210
H3860       H  0.17031025  0.87597046  0.27838032     0.35090
C3861       C  0.10136552  0.73459651  0.38470715    -0.26640
C3862       C  0.12305902  0.72884799  0.37597797    -0.14710
C3863       C  0.13891597  0.74704700  0.37123959     0.35920
C3864       C  0.13214016  0.77051045  0.37424881    -0.26080
C3865       C  0.10984534  0.77645204  0.38193950    -0.15320
C3866       C  0.09434583  0.75786793  0.38720360     0.37010
N3867       N  0.07081245  0.76236873  0.39356972    -0.89570
H3868       H  0.08910099  0.72081722  0.38798138     0.18120
H3869       H  0.14433151  0.78420756  0.37047126     0.18110
N3870       N  0.16193656  0.74166909  0.36338577    -0.88600
H3871       H  0.06197216  0.74704270  0.39732297     0.35490
H3872       H  0.06303640  0.76957317  0.37893876     0.40590
H3873       H  0.17025439  0.73257688  0.37667654     0.40210
H3874       H  0.17140177  0.75681844  0.36061576     0.35090
C3875       C  0.12252733  0.99400665  0.36802801    -0.26640
C3876       C  0.12429771  0.97789804  0.38649747    -0.14710
C3877       C  0.12629382  0.98640790  0.40914176     0.35920
C3878       C  0.12639730  0.01054751  0.41284090    -0.26080
C3879       C  0.12484254  0.02682106  0.39443912    -0.15320
C3880       C  0.12305948  0.01828011  0.37170762     0.37010
N3881       N  0.12188457  0.03410104  0.35249844    -0.89570
H3882       H  0.12032125  0.98753589  0.35056406     0.18120
H3883       H  0.12731579  0.01662687  0.43053375     0.18110
N3884       N  0.12723401  0.97061643  0.42842162    -0.88600
H3885       H  0.12038694  0.02501449  0.33692449     0.35490
H3886       H  0.13761955  0.04292285  0.35170448     0.40590
H3887       H  0.11133436  0.96210571  0.42935740     0.40210
H3888       H  0.12903644  0.97965784  0.44398885     0.35090
C3889       C  0.99729385  0.98246204  0.41531205    -0.26640
C3890       C  0.01219991  0.98276866  0.39608081    -0.14710
C3891       C  0.01009507  0.00079952  0.37965683     0.35920
C3892       C  0.99070093  0.01556055  0.38075518    -0.26080
C3893       C  0.97376782  0.01265013  0.39802991    -0.15320
C3894       C  0.97817786  0.99731339  0.41649278     0.37010
N3895       N  0.96296772  0.99615948  0.43608292    -0.89570
H3896       H  0.99943519  0.96937606  0.42865759     0.18120
H3897       H  0.98801322  0.02821053  0.36711968     0.18110
N3898       N  0.02652248  0.00309053  0.36109649    -0.88600
H3899       H  0.97261933  0.99962900  0.45095561     0.35490
H3900       H  0.95674729  0.97922158  0.43741303     0.40590
H3901       H  0.04219077  0.00811579  0.36850785     0.40210
H3902       H  0.02167710  0.01652651  0.34990921     0.35090
C3903       C  0.13760870  0.87174971  0.51927960    -0.26640
C3904       C  0.12037119  0.88338548  0.53216802    -0.14710
C3905       C  0.10250186  0.89491967  0.51994574     0.35920
C3906       C  0.10232986  0.89448119  0.49562776    -0.26080
C3907       C  0.11920910  0.88249347  0.48264125    -0.15320
C3908       C  0.13709251  0.87083964  0.49479459     0.37010
N3909       N  0.15461354  0.85751914  0.48304093    -0.89570
H3910       H  0.15202308  0.86380253  0.52832449     0.18120
H3911       H  0.08806120  0.90284573  0.48669441     0.18110
N3912       N  0.08446349  0.90771244  0.53157858    -0.88600
H3913       H  0.17057992  0.86508444  0.48670571     0.35490
H3914       H  0.15263462  0.85844015  0.46509444     0.40590
H3915       H  0.08576752  0.90627348  0.54955442     0.40210
H3916       H  0.06869275  0.90011468  0.52719008     0.35090
C3917       C  0.00794400  0.89848350  0.50061405    -0.26640
C3918       C  0.00312967  0.88784075  0.47933576    -0.14710
C3919       C  0.98295067  0.87443606  0.47680774     0.35920
C3920       C  0.96721260  0.87330037  0.49492771    -0.26080
C3921       C  0.97112161  0.88517997  0.51562501    -0.15320
C3922       C  0.99195181  0.89719113  0.51902513     0.37010
N3923       N  0.99623835  0.90873235  0.54061446    -0.89570
H3924       H  0.02377735  0.90824599  0.50260184     0.18120
H3925       H  0.95135662  0.86363422  0.49255294     0.18110
N3926       N  0.97789994  0.86187166  0.45603151    -0.88600
H3927       H  0.01230213  0.91697075  0.54015457     0.35490
H3928       H  0.99731884  0.89601442  0.55350179     0.40590
H3929       H  0.99181406  0.85084393  0.45228157     0.40210
H3930       H  0.97569933  0.87354707  0.44237015     0.35090
C3931       C  0.76770285  0.88561722  0.47111043    -0.26640
C3932       C  0.74859512  0.87275960  0.47865907    -0.14710
C3933       C  0.74820177  0.86344258  0.50130419     0.35920
C3934       C  0.76779934  0.86596909  0.51530266    -0.26080
C3935       C  0.78749134  0.87741629  0.50698050    -0.15320
C3936       C  0.78713571  0.88798999  0.48495576     0.37010
N3937       N  0.80604425  0.90149479  0.47631632    -0.89570
H3938       H  0.76779230  0.89329434  0.45393831     0.18120
H3939       H  0.76792292  0.85834051  0.53247594     0.18110
N3940       N  0.72879728  0.85075311  0.51029147    -0.88600
H3941       H  0.82053041  0.89080942  0.47432806     0.35490
H3942       H  0.80977572  0.91445410  0.48835534     0.40590
H3943       H  0.71529726  0.85011535  0.49834734     0.40210
H3944       H  0.72244444  0.85983702  0.52464165     0.35090
C3945       C  0.60331291  0.87071405  0.49165239    -0.26640
C3946       C  0.62053777  0.88599143  0.48449488    -0.14710
C3947       C  0.63028904  0.90093645  0.50164118     0.35920
C3948       C  0.62755542  0.89577908  0.52532975    -0.26080
C3949       C  0.61279746  0.87808824  0.53249211    -0.15320
C3950       C  0.59820668  0.86786970  0.51533993     0.37010
N3951       N  0.57755528  0.85539654  0.52118674    -0.89570
H3952       H  0.59407373  0.86060115  0.47891091     0.18120
H3953       H  0.63734071  0.90536520  0.53806965     0.18110
N3954       N  0.64220428  0.92194270  0.49577533    -0.88600
H3955       H  0.58014281  0.83788150  0.51733208     0.35490
H3956       H  0.57325055  0.85724190  0.53866906     0.40590
H3957       H  0.64042473  0.92607709  0.47824998     0.40210
H3958       H  0.65971621  0.91988493  0.49978592     0.35090
C3959       C  0.60455984  0.76804463  0.39163014    -0.26640
C3960       C  0.62384965  0.77618309  0.37957422    -0.14710
C3961       C  0.63801695  0.75946234  0.36764505     0.35920
C3962       C  0.63482927  0.73551821  0.37140865    -0.26080
C3963       C  0.61689940  0.72751786  0.38534699    -0.15320
C3964       C  0.60039952  0.74399278  0.39379776     0.37010
N3965       N  0.57944196  0.73624043  0.40472874    -0.89570
H3966       H  0.59285981  0.78040278  0.39962466     0.18120
H3967       H  0.64695796  0.72311552  0.36412950     0.18110
N3968       N  0.65595600  0.76666622  0.35192852    -0.88600
H3969       H  0.56919474  0.75032631  0.40983815     0.35490
H3970       H  0.56998388  0.72717216  0.39231506     0.40590
H3971       H  0.64790896  0.77461703  0.33776933     0.40210
H3972       H  0.66506955  0.75241868  0.34533799     0.35090
C3973       C  0.65286911  0.99551539  0.38779983    -0.26640
C3974       C  0.63624079  0.97827164  0.38276822    -0.14710
C3975       C  0.61413721  0.98553198  0.37544886     0.35920
C3976       C  0.60934115  0.00947147  0.37322828    -0.26080
C3977       C  0.62613782  0.02653949  0.37792564    -0.15320
C3978       C  0.64801360  0.01938930  0.38568457     0.37010
N3979       N  0.66564179  0.03625871  0.39017323    -0.89570
H3980       H  0.67012276  0.99054741  0.39301313     0.18120
H3981       H  0.59242063  0.01485190  0.36718288     0.18110
N3982       N  0.59661276  0.96875190  0.37033271    -0.88600
H3983       H  0.68112998  0.02812466  0.39490080     0.35490
H3984       H  0.66030984  0.04596804  0.40451816     0.40590
H3985       H  0.60190967  0.95975227  0.35551888     0.40210
H3986       H  0.58105421  0.97700273  0.36604603     0.35090
C3987       C  0.77855330  0.95308300  0.38785163    -0.26640
C3988       C  0.75512175  0.95917858  0.38779989    -0.14710
C3989       C  0.74852559  0.98268658  0.38926950     0.35920
C3990       C  0.76582991  0.99973490  0.39014581    -0.26080
C3991       C  0.78933710  0.99346113  0.38968619    -0.15320
C3992       C  0.79570456  0.96975947  0.38909504     0.37010
N3993       N  0.81953562  0.96248124  0.39038180    -0.89570
H3994       H  0.78373835  0.93504352  0.38774547     0.18120
H3995       H  0.76098245  0.01788098  0.39082097     0.18110
N3996       N  0.72447060  0.98911180  0.38967615    -0.88600
H3997       H  0.82114483  0.94449854  0.38876382     0.35490
H3998       H  0.82549735  0.96659585  0.40695312     0.40590
H3999       H  0.71730695  0.98432893  0.37378841     0.40210
H4000       H  0.72263292  0.00710109  0.39093887     0.35090
C4001       C  0.65285862  0.88105241  0.26823359    -0.26640
C4002       C  0.63419673  0.88216537  0.28411821    -0.14710
C4003       C  0.61153872  0.88326713  0.27532952     0.35920
C4004       C  0.60813494  0.88438503  0.25110593    -0.26080
C4005       C  0.62682898  0.88398427  0.23529906    -0.15320
C4006       C  0.64944824  0.88219963  0.24403619     0.37010
N4007       N  0.66889620  0.88255826  0.22844391    -0.89570
H4008       H  0.67037213  0.87981625  0.27478486     0.18120
H4009       H  0.59071242  0.88624638  0.24445069     0.18110
N4010       N  0.59209531  0.88303468  0.29088603    -0.88600
H4011       H  0.68439391  0.88101467  0.23762941     0.35490
H4012       H  0.66920682  0.89880734  0.22039873     0.40590
H4013       H  0.59207411  0.86697574  0.29931347     0.40210
H4014       H  0.57660425  0.88406455  0.28163047     0.35090
C4015       C  0.75632938  0.65387581  0.39147240    -0.26640
C4016       C  0.77179335  0.63492214  0.38877256    -0.14710
C4017       C  0.76238805  0.61260708  0.38650692     0.35920
C4018       C  0.73799361  0.60989698  0.38666788    -0.26080
C4019       C  0.72272242  0.62912082  0.38803127    -0.15320
C4020       C  0.73213941  0.65128823  0.39079315     0.37010
N4021       N  0.71714599  0.67107735  0.39343754    -0.89570
H4022       H  0.76322976  0.67116697  0.39356529     0.18120
H4023       H  0.73077528  0.59263589  0.38567904     0.18110
N4024       N  0.77744830  0.59293049  0.38368594    -0.88600
H4025       H  0.72680846  0.68627126  0.39485654     0.35490
H4026       H  0.70819434  0.66918388  0.40909102     0.40590
H4027       H  0.78615053  0.59486243  0.36789909     0.40210
H4028       H  0.76778380  0.57772504  0.38240974     0.35090
C4029       C  0.77190555  0.75959632  0.37374516    -0.26640
C4030       C  0.77277898  0.74373371  0.39203934    -0.14710
C4031       C  0.75526266  0.74338873  0.40912250     0.35920
C4032       C  0.73794490  0.76039109  0.40830976    -0.26080
C4033       C  0.73803631  0.77713863  0.39073559    -0.15320
C4034       C  0.75482761  0.77643945  0.37300413     0.37010
N4035       N  0.75556681  0.79323956  0.35467039    -0.89570
H4036       H  0.78539571  0.75968923  0.36063045     0.18120
H4037       H  0.72496367  0.76109994  0.42188792     0.18110
N4038       N  0.75498833  0.72679116  0.42774076    -0.88600
H4039       H  0.75767006  0.80972039  0.36180068     0.35490
H4040       H  0.73988380  0.79280032  0.34573567     0.40590
H4041       H  0.76859881  0.71491875  0.42624326     0.40210
H4042       H  0.73976822  0.71720606  0.42624585     0.35090
C4043       C  0.87655885  0.74918944  0.49885901    -0.26640
C4044       C  0.86367920  0.75366979  0.47877981    -0.14710
C4045       C  0.85182738  0.77502178  0.47669973     0.35920
C4046       C  0.85535941  0.79231772  0.49310253    -0.26080
C4047       C  0.87016300  0.78878696  0.51196406    -0.15320
C4048       C  0.87965609  0.76641438  0.51574446     0.37010
N4049       N  0.89282321  0.76125503  0.53617569    -0.89570
H4050       H  0.88489103  0.73250542  0.50111493     0.18120
H4051       H  0.84700141  0.80897534  0.49048612     0.18110
N4052       N  0.83675519  0.77965185  0.45755052    -0.88600
H4053       H  0.89965801  0.74445832  0.53544540     0.35490
H4054       H  0.88123133  0.76134341  0.55012020     0.40590
H4055       H  0.84301196  0.79413772  0.44865023     0.40210
H4056       H  0.82037512  0.78378619  0.46412251     0.35090
C4057       C  0.87962454  0.61755126  0.49346259    -0.26640
C4058       C  0.86803922  0.63628820  0.48305830    -0.14710
C4059       C  0.85796160  0.65348390  0.49758270     0.35920
C4060       C  0.85987518  0.65162490  0.52176102    -0.26080
C4061       C  0.87139029  0.63294825  0.53219056    -0.15320
C4062       C  0.88098752  0.61547057  0.51786311     0.37010
N4063       N  0.89214848  0.59568004  0.52818663    -0.89570
H4064       H  0.88813567  0.60483631  0.48253525     0.18120
H4065       H  0.85117385  0.66433373  0.53256821     0.18110
N4066       N  0.84510969  0.67284426  0.48844352    -0.88600
H4067       H  0.89876017  0.58469332  0.51536346     0.35490
H4068       H  0.87955433  0.58621259  0.53707972     0.40590
H4069       H  0.84299244  0.67175788  0.47052800     0.40210
H4070       H  0.85447918  0.68788437  0.49190068     0.35090
C4071       C  0.98970098  0.65861258  0.38800162    -0.26640
C4072       C  0.97355949  0.64256764  0.37897629    -0.14710
C4073       C  0.98223521  0.62235389  0.36834890     0.35920
C4074       C  0.00638874  0.61917357  0.36622737    -0.26080
C4075       C  0.02246324  0.63549919  0.37470585    -0.15320
C4076       C  0.01388047  0.65535851  0.38593851     0.37010
N4077       N  0.02955912  0.67249095  0.39461943    -0.89570
H4078       H  0.98347578  0.67421001  0.39641057     0.18120
H4079       H  0.01271577  0.60367393  0.35769388     0.18110
N4080       N  0.96670133  0.60508370  0.35971594    -0.88600
H4081       H  0.02046789  0.68593073  0.40274391     0.35490
H4082       H  0.03800452  0.67987296  0.38038366     0.40590
H4083       H  0.95842126  0.59766650  0.37402971     0.40210
H4084       H  0.97587102  0.59167828  0.35162081     0.35090
C4085       C  0.97701779  0.75940141  0.38008174    -0.26640
C4086       C  0.95413085  0.76543815  0.38527296    -0.14710
C4087       C  0.94835553  0.78875359  0.39015889     0.35920
C4088       C  0.96572663  0.80545790  0.38974155    -0.26080
C4089       C  0.98856056  0.79961268  0.38398928    -0.15320
C4090       C  0.99424104  0.77629664  0.37882879     0.37010
N4091       N  0.01675795  0.76923376  0.37106227    -0.89570
H4092       H  0.98138033  0.74155213  0.37607626     0.18120
H4093       H  0.96133732  0.82323596  0.39397623     0.18110
N4094       N  0.92508699  0.79538254  0.39622183    -0.88600
H4095       H  0.02376004  0.75862909  0.38397148     0.35490
H4096       H  0.02765604  0.78336450  0.36868388     0.40590
H4097       H  0.91536365  0.79529953  0.38098481     0.40210
H4098       H  0.92454494  0.81247975  0.40217936     0.35090
C4099       C  0.87828540  0.65635584  0.24122141    -0.26640
C4100       C  0.87673973  0.63367693  0.23304630    -0.14710
C4101       C  0.87595481  0.61522572  0.24935244     0.35920
C4102       C  0.87599842  0.61991340  0.27343396    -0.26080
C4103       C  0.87737172  0.64268319  0.28163662    -0.15320
C4104       C  0.87914255  0.66104546  0.26517208     0.37010
N4105       N  0.88220947  0.68453194  0.27286731    -0.89570
H4106       H  0.88016440  0.67038299  0.22885489     0.18120
H4107       H  0.87433389  0.60583765  0.28576421     0.18110
N4108       N  0.87525177  0.59168893  0.24128504    -0.88600
H4109       H  0.88314204  0.69593853  0.25879892     0.35490
H4110       H  0.89812369  0.68536469  0.28137080     0.40590
H4111       H  0.85972848  0.58956162  0.23230974     0.40210
H4112       H  0.87486757  0.58014370  0.25526527     0.35090
C4113       C  0.86899088  0.99402109  0.16257359    -0.26640
C4114       C  0.87016310  0.97850677  0.14369536    -0.14710
C4115       C  0.87299197  0.98755335  0.12123805     0.35920
C4116       C  0.87353161  0.01182835  0.11808160    -0.26080
C4117       C  0.87161013  0.02732194  0.13690853    -0.15320
C4118       C  0.86935730  0.01823498  0.15940835     0.37010
N4119       N  0.86637156  0.03355997  0.17882556    -0.89570
H4120       H  0.86727839  0.98715785  0.17998645     0.18120
H4121       H  0.87443782  0.01880768  0.10065514     0.18110
N4122       N  0.87543150  0.97219965  0.10180857    -0.88600
H4123       H  0.86515394  0.02410781  0.19425331     0.35490
H4124       H  0.85053803  0.04217001  0.17682739     0.40590
H4125       H  0.89085136  0.96290261  0.10397661     0.40210
H4126       H  0.87723604  0.98166716  0.08645043     0.35090
C4127       C  0.98824051  0.89242480  0.15175852    -0.26640
C4128       C  0.97275103  0.87863361  0.13866247    -0.14710
C4129       C  0.98201919  0.86413202  0.12147006     0.35920
C4130       C  0.00623243  0.86289810  0.11860088    -0.26080
C4131       C  0.02178521  0.87532497  0.13292680    -0.15320
C4132       C  0.01249034  0.89091398  0.14911275     0.37010
N4133       N  0.02750918  0.90454294  0.16335196    -0.89570
H4134       H  0.98147050  0.90419669  0.16472758     0.18120
H4135       H  0.01297542  0.85120914  0.10554254     0.18110
N4136       N  0.96707954  0.85012056  0.10750550    -0.88600
H4137       H  0.01789128  0.91448632  0.17508989     0.35490
H4138       H  0.03596707  0.91628152  0.15246227     0.40590
H4139       H  0.95957116  0.83774977  0.11839861     0.40210
H4140       H  0.97665237  0.84089836  0.09515924     0.35090
C4141       C  0.85165865  0.96642973  0.27724084    -0.26640
C4142       C  0.86963973  0.96698225  0.26087859    -0.14710
C4143       C  0.88674384  0.98430909  0.26224729     0.35920
C4144       C  0.88599793  0.99997025  0.28068531    -0.26080
C4145       C  0.86917351  0.99805672  0.29810152    -0.15320
C4146       C  0.85119430  0.98187192  0.29588461     0.37010
N4147       N  0.83279893  0.98093360  0.31267203    -0.89570
H4148       H  0.83834700  0.95334044  0.27590049     0.18120
H4149       H  0.89966725  0.01263257  0.28233903     0.18110
N4150       N  0.90568840  0.98505070  0.24607826    -0.88600
H4151       H  0.82105573  0.96787392  0.30852112     0.35490
H4152       H  0.82371071  0.99662004  0.31174651     0.40590
H4153       H  0.91602194  0.97043484  0.24911239     0.40210
H4154       H  0.91617318  0.99942275  0.24916042     0.35090
C4155       C  0.98557713  0.88069056  0.25516566    -0.26640
C4156       C  0.96336286  0.87307869  0.26115867    -0.14710
C4157       C  0.95860692  0.86667230  0.28441637     0.35920
C4158       C  0.97571831  0.86929231  0.30107608    -0.26080
C4159       C  0.99734521  0.87858934  0.29551859    -0.15320
C4160       C  0.00275599  0.88334859  0.27209751     0.37010
N4161       N  0.02545945  0.89077893  0.26547242    -0.89570
H4162       H  0.98949953  0.88487140  0.23728599     0.18120
H4163       H  0.97153696  0.86500343  0.31887889     0.18110
N4164       N  0.93614335  0.85864997  0.29155207    -0.88600
H4165       H  0.02628700  0.89407760  0.24767014     0.35490
H4166       H  0.03658923  0.87682088  0.26862122     0.40590
H4167       H  0.92517246  0.87311216  0.29209858     0.40210
H4168       H  0.93656677  0.85212110  0.30846171     0.35090
C4169       C  0.89709320  0.77943177  0.26993231    -0.26640
C4170       C  0.87793807  0.78250017  0.25537899    -0.14710
C4171       C  0.85828475  0.76829129  0.25805999     0.35920
C4172       C  0.85757343  0.75265158  0.27659550    -0.26080
C4173       C  0.87561169  0.75179013  0.29270308    -0.15320
C4174       C  0.89607692  0.76421838  0.28875264     0.37010
N4175       N  0.91536603  0.76187954  0.30426467    -0.89570
H4176       H  0.91236513  0.78997294  0.26742304     0.18120
H4177       H  0.84202104  0.74267430  0.27964571     0.18110
N4178       N  0.83844566  0.77102649  0.24331095    -0.88600
H4179       H  0.92904762  0.77242785  0.29894214     0.35490
H4180       H  0.92129938  0.74476605  0.30317948     0.40590
H4181       H  0.83078825  0.78700230  0.24725901     0.40210
H4182       H  0.82601146  0.75846921  0.24709958     0.35090
C4183       C  0.89537074  0.74214943  0.14617596    -0.26640
C4184       C  0.87731998  0.72856093  0.13715982    -0.14710
C4185       C  0.85771073  0.73991914  0.12804623     0.35920
C4186       C  0.85636694  0.76443763  0.12874559    -0.26080
C4187       C  0.87465622  0.77794334  0.13743577    -0.15320
C4188       C  0.89422768  0.76652729  0.14650654     0.37010
N4189       N  0.91275939  0.77974214  0.15640370    -0.89570
H4190       H  0.91086514  0.73358842  0.15248723     0.18120
H4191       H  0.84074556  0.77309221  0.12292208     0.18110
N4192       N  0.83944687  0.72662213  0.11784446    -0.88600
H4193       H  0.92617296  0.76878958  0.16180971     0.35490
H4194       H  0.90641823  0.78786516  0.17132023     0.40590
H4195       H  0.84616767  0.71844389  0.10312243     0.40210
H4196       H  0.82617793  0.73756892  0.11209069     0.35090
C4197       C  0.79215481  0.87154307  0.28587166    -0.26640
C4198       C  0.78482908  0.87611910  0.26321175    -0.14710
C4199       C  0.76111619  0.87776282  0.25812546     0.35920
C4200       C  0.74506626  0.87594468  0.27635642    -0.26080
C4201       C  0.75265146  0.87255527  0.29921568    -0.15320
C4202       C  0.77639663  0.86958937  0.30391779     0.37010
N4203       N  0.78447850  0.86421666  0.32689276    -0.89570
H4204       H  0.81036209  0.86913362  0.28959689     0.18120
H4205       H  0.72674149  0.87777592  0.27284980     0.18110
N4206       N  0.75354437  0.88158621  0.23472948    -0.88600
H4207       H  0.80253607  0.86316635  0.32734463     0.35490
H4208       H  0.77835486  0.84773312  0.33119147     0.40590
H4209       H  0.75952530  0.89785063  0.22950456     0.40210
H4210       H  0.73548382  0.88233859  0.23405373     0.35090
C4211       C  0.75563527  0.88464823  0.16370161    -0.26640
C4212       C  0.77074999  0.88228053  0.14450036    -0.14710
C4213       C  0.76077734  0.88016565  0.12224200     0.35920
C4214       C  0.73644835  0.88039994  0.12008008    -0.26080
C4215       C  0.72149136  0.88211267  0.13943498    -0.15320
C4216       C  0.73145587  0.88435415  0.16161296     0.37010
N4217       N  0.71793205  0.88740656  0.18235577    -0.89570
H4218       H  0.76274317  0.88651918  0.18095091     0.18120
H4219       H  0.72905581  0.87943633  0.10286875     0.18110
N4220       N  0.77438097  0.87702185  0.10159375    -0.88600
H4221       H  0.72086381  0.87295815  0.19292538     0.35490
H4222       H  0.70025589  0.88788760  0.17904861     0.40590
H4223       H  0.79202344  0.87660861  0.10513355     0.40210
H4224       H  0.77151642  0.89142072  0.09093686     0.35090
C4225       C  0.76149523  0.63650239  0.88468355    -0.26640
C4226       C  0.77162293  0.61658226  0.87502316    -0.14710
C4227       C  0.75684067  0.59877608  0.86683985     0.35920
C4228       C  0.73267585  0.60145469  0.86840098    -0.26080
C4229       C  0.72249442  0.62151792  0.87764363    -0.15320
C4230       C  0.73724419  0.63923311  0.88602424     0.37010
N4231       N  0.72819686  0.66044588  0.89555919    -0.89570
H4232       H  0.77250651  0.64982893  0.89182795     0.18120
H4233       H  0.72170984  0.58829680  0.86086052     0.18110
N4234       N  0.76567506  0.57788795  0.85637334    -0.88600
H4235       H  0.73386382  0.66150425  0.91270956     0.35490
H4236       H  0.71015334  0.66020569  0.89636758     0.40590
H4237       H  0.78364767  0.57815053  0.85474723     0.40210
H4238       H  0.75932846  0.57720519  0.83944263     0.35090
C4239       C  0.88481005  0.62801032  0.76834213    -0.26640
C4240       C  0.86798194  0.61639842  0.78164935    -0.14710
C4241       C  0.84960717  0.60546803  0.77001606     0.35920
C4242       C  0.84792213  0.60716461  0.74566101    -0.26080
C4243       C  0.86460596  0.61888637  0.73229852    -0.15320
C4244       C  0.88309619  0.62971808  0.74388053     0.37010
N4245       N  0.89979004  0.64277580  0.73086133    -0.89570
H4246       H  0.89951062  0.63555814  0.77708531     0.18120
H4247       H  0.83319942  0.59956334  0.73698457     0.18110
N4248       N  0.83273652  0.59255446  0.78298980    -0.88600
H4249       H  0.91235409  0.64956614  0.74189159     0.35490
H4250       H  0.89119254  0.65696450  0.72350216     0.40590
H4251       H  0.84113525  0.57821997  0.79029487     0.40210
H4252       H  0.82006213  0.58595957  0.77196474     0.35090
C4253       C  0.98494217  0.63939116  0.87218113    -0.26640
C4254       C  0.97207194  0.62545849  0.88752847    -0.14710
C4255       C  0.98441271  0.61124535  0.90328150     0.35920
C4256       C  0.00868992  0.61125090  0.90343828    -0.26080
C4257       C  0.02168688  0.62502577  0.88810614    -0.15320
C4258       C  0.00945325  0.63968851  0.87252161     0.37010
N4259       N  0.02119125  0.65546736  0.85724179    -0.89570
H4260       H  0.97588882  0.64961196  0.85926932     0.18120
H4261       H  0.01758177  0.60083910  0.91632814     0.18110
N4262       N  0.97263490  0.59639045  0.91932993    -0.88600
H4263       H  0.01719093  0.65071456  0.84025613     0.35490
H4264       H  0.03911893  0.65391977  0.85876835     0.40590
H4265       H  0.96121406  0.60652233  0.92914011     0.40210
H4266       H  0.96305330  0.58419860  0.91013559     0.35090
C4267       C  0.85787829  0.62839274  0.99766859    -0.26640
C4268       C  0.87671142  0.62509928  0.98226454    -0.14710
C4269       C  0.89871567  0.62030652  0.99185133     0.35920
C4270       C  0.90128105  0.61958525  0.01604079    -0.26080
C4271       C  0.88267256  0.62344527  0.03148097    -0.15320
C4272       C  0.86067494  0.62799558  0.02208678     0.37010
N4273       N  0.84140625  0.63255840  0.03720685    -0.89570
H4274       H  0.84075054  0.63105572  0.99052606     0.18120
H4275       H  0.91838513  0.61622438  0.02292752     0.18110
N4276       N  0.91880908  0.61550716  0.97786387    -0.88600
H4277       H  0.82638816  0.63546701  0.02755703     0.35490
H4278       H  0.84479604  0.64797605  0.04602551     0.40590
H4279       H  0.91535883  0.61672730  0.96021525     0.40210
H4280       H  0.92382605  0.59836271  0.98105591     0.35090
C4281       C  0.87912989  0.26061092  0.10645989    -0.26640
C4282       C  0.86914915  0.27666018  0.12223687    -0.14710
C4283       C  0.85646089  0.26780754  0.14109901     0.35920
C4284       C  0.85351587  0.24359863  0.14330646    -0.26080
C4285       C  0.86315627  0.22762677  0.12730948    -0.15320
C4286       C  0.87622057  0.23640363  0.10870704     0.37010
N4287       N  0.88603159  0.22091837  0.09182343    -0.89570
H4288       H  0.88905567  0.26693917  0.09184720     0.18120
H4289       H  0.84351700  0.23716639  0.15783337     0.18110
N4290       N  0.84659654  0.28322722  0.15798912    -0.88600
H4291       H  0.89548098  0.23012377  0.07940721     0.35490
H4292       H  0.87233759  0.21314404  0.08302081     0.40590
H4293       H  0.86030034  0.29092302  0.16684357     0.40210
H4294       H  0.83713880  0.27398079  0.17036661     0.35090
C4295       C  0.76196282  0.38094010  0.14029132    -0.26640
C4296       C  0.77324857  0.37018807  0.12155323    -0.14710
C4297       C  0.75959514  0.35858745  0.10488152     0.35920
C4298       C  0.73530401  0.35800156  0.10732953    -0.26080
C4299       C  0.72392472  0.36896053  0.12584180    -0.15320
C4300       C  0.73762323  0.38020550  0.14282115     0.37010
N4301       N  0.72748737  0.39101582  0.16287029    -0.89570
H4302       H  0.77206495  0.39055433  0.15275833     0.18120
H4303       H  0.72515042  0.34819850  0.09504036     0.18110
N4304       N  0.77050203  0.34677424  0.08577887    -0.88600
H4305       H  0.73296768  0.38171586  0.17743603     0.35490
H4306       H  0.70945649  0.39020229  0.16255598     0.40590
H4307       H  0.77724433  0.35923624  0.07454182     0.40210
H4308       H  0.75826515  0.33766027  0.07615101     0.35090
C4309       C  0.88775444  0.51715828  0.11017341    -0.26640
C4310       C  0.88139859  0.52756245  0.13109075    -0.14710
C4311       C  0.87552064  0.51302402  0.15011752     0.35920
C4312       C  0.87476976  0.48871867  0.14739700    -0.26080
C4313       C  0.88063071  0.47835167  0.12619805    -0.15320
C4314       C  0.88769823  0.49291643  0.10765515     0.37010
N4315       N  0.89482646  0.48304458  0.08599353    -0.89570
H4316       H  0.89355443  0.52786989  0.09586348     0.18120
H4317       H  0.86877839  0.47801934  0.16162462     0.18110
N4318       N  0.86981732  0.52257267  0.17231284    -0.88600
H4319       H  0.91177468  0.48833098  0.08260608     0.35490
H4320       H  0.88421864  0.48984314  0.07297474     0.40590
H4321       H  0.85612530  0.53428373  0.17016965     0.40210
H4322       H  0.88411880  0.53164253  0.17849049     0.35090
C4323       C  0.90015929  0.50130251  0.98779833    -0.26640
C4324       C  0.87902562  0.51267077  0.98388511    -0.14710
C4325       C  0.85968931  0.50729150  0.99785141     0.35920
C4326       C  0.86145322  0.48915031  0.01396782    -0.26080
C4327       C  0.88204676  0.47641592  0.01636314    -0.15320
C4328       C  0.90204021  0.48351931  0.00418291     0.37010
N4329       N  0.92440468  0.47321014  0.00795775    -0.89570
H4330       H  0.91518429  0.50577506  0.97745683     0.18120
H4331       H  0.84619465  0.48394661  0.02356857     0.18110
N4332       N  0.83786123  0.51877841  0.99434828    -0.88600
H4333       H  0.92870608  0.46353873  0.99325319     0.35490
H4334       H  0.92436756  0.46202661  0.02219016     0.40590
H4335       H  0.83944676  0.53551954  0.00099183     0.40210
H4336       H  0.82486328  0.51086260  0.00415110     0.35090
C4337       C  0.98219802  0.39119892  0.14943691    -0.26640
C4338       C  0.97477154  0.37702832  0.13141261    -0.14710
C4339       C  0.99202843  0.36472789  0.11836417     0.35920
C4340       C  0.01572900  0.36974343  0.12129757    -0.26080
C4341       C  0.02301626  0.38562021  0.13787653    -0.15320
C4342       C  0.00598255  0.39494717  0.15329336     0.37010
N4343       N  0.01260014  0.40796971  0.17326686    -0.89570
H4344       H  0.96954179  0.39969363  0.16044665     0.18120
H4345       H  0.02850453  0.36166841  0.11011194     0.18110
N4346       N  0.98556344  0.34727681  0.10188025    -0.88600
H4347       H  0.00464430  0.42426539  0.17231636     0.35490
H4348       H  0.00621166  0.39950334  0.18796704     0.40590
H4349       H  0.97811151  0.33363431  0.11117508     0.40210
H4350       H  0.00011301  0.34038574  0.09351469     0.35090
C4351       C  0.13125759  0.36608685  0.77237692    -0.26640
C4352       C  0.10989383  0.37455197  0.78014122    -0.14710
C4353       C  0.09345320  0.38195977  0.76319279     0.35920
C4354       C  0.09868868  0.38057502  0.73934209    -0.26080
C4355       C  0.11971271  0.37146882  0.73165417    -0.15320
C4356       C  0.13641852  0.36459021  0.74846059     0.37010
N4357       N  0.15869857  0.35605933  0.74118962    -0.89570
H4358       H  0.14407893  0.36078328  0.78498931     0.18120
H4359       H  0.08577926  0.38554362  0.72667210     0.18110
N4360       N  0.07100360  0.39014862  0.77012996    -0.88600
H4361       H  0.16883750  0.35154590  0.75549135     0.35490
H4362       H  0.16720314  0.36964739  0.73278034     0.40590
H4363       H  0.06255311  0.37606644  0.77767708     0.40210
H4364       H  0.06114532  0.39513381  0.75578244     0.35090
C4365       C  0.09699839  0.23567068  0.87695635    -0.26640
C4366       C  0.11992686  0.22800553  0.87625516    -0.14710
C4367       C  0.13785023  0.24474025  0.87536686     0.35920
C4368       C  0.13245605  0.26869988  0.87580156    -0.26080
C4369       C  0.10946458  0.27641302  0.87668041    -0.15320
C4370       C  0.09152918  0.25952671  0.87657754     0.37010
N4371       N  0.06766528  0.26663834  0.87551288    -0.89570
H4372       H  0.08324972  0.22298675  0.87650128     0.18120
H4373       H  0.14624372  0.28133695  0.87604202     0.18110
N4374       N  0.16157499  0.23725938  0.87401962    -0.88600
H4375       H  0.05668679  0.25229452  0.87561715     0.35490
H4376       H  0.06516606  0.27509415  0.85967408     0.40590
H4377       H  0.16537901  0.22834233  0.88933838     0.40210
H4378       H  0.17264666  0.25151596  0.87334509     0.35090
C4379       C  0.11992971  0.49321321  0.86423688    -0.26640
C4380       C  0.12165426  0.47804278  0.88346440    -0.14710
C4381       C  0.12315946  0.48764470  0.90573351     0.35920
C4382       C  0.12298589  0.51195012  0.90828860    -0.26080
C4383       C  0.12110956  0.52723243  0.88913160    -0.15320
C4384       C  0.11991404  0.51762891  0.86679566     0.37010
N4385       N  0.11892914  0.53252754  0.84685461    -0.89570
H4386       H  0.11812522  0.48587913  0.84706962     0.18120
H4387       H  0.12399409  0.51903735  0.92560786     0.18110
N4388       N  0.12388180  0.47278102  0.92574667    -0.88600
H4389       H  0.11802216  0.52270423  0.83168499     0.35490
H4390       H  0.13450146  0.54163406  0.84604657     0.40590
H4391       H  0.10810677  0.46404134  0.92671037     0.40210
H4392       H  0.12513269  0.48258621  0.94090281     0.35090
C4393       C  0.00865754  0.49847383  0.88914304    -0.26640
C4394       C  0.00295132  0.47511479  0.89303256    -0.14710
C4395       C  0.97971569  0.46912922  0.89799842     0.35920
C4396       C  0.96323759  0.48642309  0.89986677    -0.26080
C4397       C  0.96857500  0.50972278  0.89608384    -0.15320
C4398       C  0.99150484  0.51597277  0.89052765     0.37010
N4399       N  0.99718887  0.53981500  0.88624138    -0.89570
H4400       H  0.02638283  0.50302212  0.88512648     0.18120
H4401       H  0.94565165  0.48104685  0.90300794     0.18110
N4402       N  0.97240087  0.44536966  0.90012450    -0.88600
H4403       H  0.01477209  0.54142092  0.88228795     0.35490
H4404       H  0.99437510  0.54895193  0.90162773     0.40590
H4405       H  0.97358296  0.43789305  0.88366653     0.40210
H4406       H  0.95504787  0.44414997  0.90512587     0.35090
C4407       C  0.13697381  0.37114473  0.99435419    -0.26640
C4408       C  0.12219126  0.38543678  0.98120968    -0.14710
C4409       C  0.10692883  0.40054996  0.99334156     0.35920
C4410       C  0.10648897  0.40052028  0.01775063    -0.26080
C4411       C  0.12081766  0.38585000  0.03089455    -0.15320
C4412       C  0.13674583  0.37136515  0.01886878     0.37010
N4413       N  0.15306376  0.35680211  0.03085945    -0.89570
H4414       H  0.14808590  0.35881829  0.98548951     0.18120
H4415       H  0.09508309  0.41259055  0.02661065     0.18110
N4416       N  0.09100973  0.41564469  0.98142904    -0.88600
H4417       H  0.14938076  0.33962700  0.02654828     0.35490
H4418       H  0.15109111  0.35802887  0.04879567     0.40590
H4419       H  0.09343030  0.41494837  0.96351199     0.40210
H4420       H  0.09487474  0.43264781  0.98623232     0.35090
C4421       C  0.98471325  0.37652162  0.97492801    -0.26640
C4422       C  0.00644086  0.38495490  0.98117416    -0.14710
C4423       C  0.01100477  0.39104230  0.00429886     0.35920
C4424       C  0.99279482  0.39020006  0.02056473    -0.26080
C4425       C  0.97056774  0.38344943  0.01361816    -0.15320
C4426       C  0.96676947  0.37580752  0.99083401     0.37010
N4427       N  0.94463846  0.36731401  0.98371354    -0.89570
H4428       H  0.98140926  0.37097521  0.95730729     0.18120
H4429       H  0.99566462  0.39556484  0.03830231     0.18110
N4430       N  0.03361275  0.39888341  0.01082339    -0.88600
H4431       H  0.94681571  0.35037891  0.97764791     0.35490
H4432       H  0.93879497  0.37757681  0.96994762     0.40590
H4433       H  0.04515215  0.38507213  0.00842859     0.40210
H4434       H  0.03395226  0.40291448  0.02847354     0.35090
C4435       C  0.65562172  0.38109092  0.76796968    -0.26640
C4436       C  0.63618740  0.38289759  0.78279655    -0.14710
C4437       C  0.61416524  0.38487332  0.77274454     0.35920
C4438       C  0.61214708  0.38536077  0.74832472    -0.26080
C4439       C  0.63160539  0.38374846  0.73341411    -0.15320
C4440       C  0.65376930  0.38182879  0.74364600     0.37010
N4441       N  0.67482983  0.38135561  0.73032074    -0.89570
H4442       H  0.67273694  0.37935258  0.77542184     0.18120
H4443       H  0.59509816  0.38730041  0.74078284     0.18110
N4444       N  0.59392637  0.38594069  0.78721975    -0.88600
H4445       H  0.68439525  0.39600981  0.73477237     0.35490
H4446       H  0.67172927  0.38262562  0.71262295     0.40590
H4447       H  0.59265479  0.37012058  0.79598450     0.40210
H4448       H  0.57902047  0.38751473  0.77711321     0.35090
C4449       C  0.79562598  0.47348637  0.89421742    -0.26640
C4450       C  0.78829224  0.49576356  0.88776224    -0.14710
C4451       C  0.76508345  0.49940033  0.88109903     0.35920
C4452       C  0.74999699  0.48051101  0.88028880    -0.26080
C4453       C  0.75770762  0.45806905  0.88581941    -0.15320
C4454       C  0.78070806  0.45470829  0.89344904     0.37010
N4455       N  0.78931281  0.43277502  0.90142452    -0.89570
H4456       H  0.81325890  0.47054972  0.89991630     0.18120
H4457       H  0.73223789  0.48329795  0.87493884     0.18110
N4458       N  0.75659696  0.52173437  0.87428097    -0.88600
H4459       H  0.79041069  0.42133688  0.88750474     0.35490
H4460       H  0.77808194  0.42623111  0.91404419     0.40590
H4461       H  0.76702559  0.52798291  0.86085044     0.40210
H4462       H  0.75777797  0.53293927  0.88839721     0.35090
C4463       C  0.64084061  0.49471384  0.89910270    -0.26640
C4464       C  0.63519035  0.47854881  0.88162322    -0.14710
C4465       C  0.62558970  0.48680643  0.86087780     0.35920
C4466       C  0.62225681  0.51084098  0.85789087    -0.26080
C4467       C  0.62844465  0.52718610  0.87508907    -0.15320
C4468       C  0.63746021  0.51882974  0.89613355     0.37010
N4469       N  0.64307977  0.53466045  0.91441384    -0.89570
H4470       H  0.64810191  0.48849125  0.91524549     0.18120
H4471       H  0.61516553  0.51680706  0.84159300     0.18110
N4472       N  0.62002482  0.47092887  0.84257894    -0.88600
H4473       H  0.64984696  0.52572088  0.92865705     0.35490
H4474       H  0.62762696  0.54233371  0.92001964     0.40590
H4475       H  0.63550574  0.46348336  0.83674457     0.40210
H4476       H  0.61293333  0.47978318  0.82843947     0.35090
C4477       C  0.63375067  0.39723583  0.00081979    -0.26640
C4478       C  0.62536292  0.38092144  0.98461628    -0.14710
C4479       C  0.61334774  0.36160239  0.99303501     0.35920
C4480       C  0.61163371  0.35810435  0.01722220    -0.26080
C4481       C  0.62187705  0.37337060  0.03350145    -0.15320
C4482       C  0.63262379  0.39347788  0.02497706     0.37010
N4483       N  0.64283912  0.40978465  0.04061264    -0.89570
H4484       H  0.64245443  0.41260708  0.99457467     0.18120
H4485       H  0.60277732  0.34275610  0.02328532     0.18110
N4486       N  0.60408655  0.34494490  0.97713972    -0.88600
H4487       H  0.64874382  0.42434171  0.03159631     0.35490
H4488       H  0.65755037  0.40184797  0.04759258     0.40590
H4489       H  0.59097622  0.35320589  0.96774804     0.40210
H4490       H  0.59626364  0.33131521  0.98613269     0.35090
C4491       C  0.76888148  0.38298901  0.96803034    -0.26640
C4492       C  0.74839262  0.37320247  0.97646851    -0.14710
C4493       C  0.74649170  0.36709743  0.00009732     0.35920
C4494       C  0.76604841  0.36913092  0.01423976    -0.26080
C4495       C  0.78709846  0.37710792  0.00514180    -0.15320
C4496       C  0.78820729  0.38497583  0.98199792     0.37010
N4497       N  0.80838646  0.39561596  0.97227549    -0.89570
H4498       H  0.77007653  0.38863745  0.95012740     0.18120
H4499       H  0.76498775  0.36382658  0.03223119     0.18110
N4500       N  0.72551820  0.35816629  0.01005710    -0.88600
H4501       H  0.82160758  0.38333653  0.97088856     0.35490
H4502       H  0.81361966  0.40908975  0.98311397     0.40590
H4503       H  0.71224571  0.35748530  0.99786370     0.40210
H4504       H  0.72006880  0.36983379  0.02282149     0.35090
C4505       C  0.63467897  0.26699742  0.90716237    -0.26640
C4506       C  0.62295175  0.27834349  0.88914877    -0.14710
C4507       C  0.61374489  0.26462904  0.87096409     0.35920
C4508       C  0.61621349  0.24026303  0.87151869    -0.26080
C4509       C  0.62806337  0.22897432  0.88951959    -0.15320
C4510       C  0.63748171  0.24274702  0.90755576     0.37010
N4511       N  0.64994456  0.23269264  0.92668704    -0.89570
H4512       H  0.64298121  0.27722392  0.92047200     0.18120
H4513       H  0.60802629  0.23000972  0.85816812     0.18110
N4514       N  0.60208869  0.27487900  0.85145692    -0.88600
H4515       H  0.66660896  0.23963988  0.92652486     0.35490
H4516       H  0.65215939  0.21484994  0.92465112     0.40590
H4517       H  0.60059981  0.29282491  0.85326675     0.40210
H4518       H  0.58517619  0.26854777  0.85134350     0.35090
C4519       C  0.98654110  0.12447330  0.89282240    -0.26640
C4520       C  0.97446341  0.13941818  0.87777331    -0.14710
C4521       C  0.98748291  0.15406710  0.86296788     0.35920
C4522       C  0.01182068  0.15278222  0.86307239    -0.26080
C4523       C  0.02396859  0.13743593  0.87765243    -0.15320
C4524       C  0.01097345  0.12314448  0.89284247     0.37010
N4525       N  0.02188438  0.10659272  0.90797973    -0.89570
H4526       H  0.97688268  0.11392348  0.90498698     0.18120
H4527       H  0.02139100  0.16317649  0.85068908     0.18110
N4528       N  0.97668448  0.17047835  0.84755616    -0.88600
H4529       H  0.01760375  0.11116643  0.92498676     0.35490
H4530       H  0.03988059  0.10752926  0.90684419     0.40590
H4531       H  0.95867544  0.16963980  0.84839083     0.40210
H4532       H  0.98121920  0.16584274  0.83063231     0.35090
C4533       C  0.84271778  0.13083370  0.01605363    -0.26640
C4534       C  0.86172598  0.12900285  0.03129682    -0.14710
C4535       C  0.88418124  0.12778310  0.02148962     0.35920
C4536       C  0.88670971  0.12868247  0.99716801    -0.26080
C4537       C  0.86755482  0.13012243  0.98206981    -0.15320
C4538       C  0.84517282  0.13112627  0.99187036     0.37010
N4539       N  0.82454525  0.13364354  0.97820181    -0.89570
H4540       H  0.82538698  0.13209946  0.02307566     0.18120
H4541       H  0.90403169  0.12855243  0.98990793     0.18110
N4542       N  0.90470424  0.12495974  0.03521570    -0.88600
H4543       H  0.81448570  0.11887173  0.98091028     0.35490
H4544       H  0.82808885  0.13431692  0.96052901     0.40590
H4545       H  0.90094371  0.12360329  0.05281122     0.40210
H4546       H  0.91469102  0.13986804  0.03307605     0.35090
C4547       C  0.88916612  0.25192719  0.99199410    -0.26640
C4548       C  0.86791235  0.24881210  0.98085921    -0.14710
C4549       C  0.84944723  0.26440567  0.98531839     0.35920
C4550       C  0.85319902  0.28348758  0.99969937    -0.26080
C4551       C  0.87475157  0.28707854  0.01004075    -0.15320
C4552       C  0.89286429  0.27090969  0.00634333     0.37010
N4553       N  0.91570183  0.27414288  0.01531121    -0.89570
H4554       H  0.90361581  0.24046714  0.98828637     0.18120
H4555       H  0.83918982  0.29569245  0.00271748     0.18110
N4556       N  0.82677970  0.26146324  0.97560502    -0.88600
H4557       H  0.91525943  0.27257230  0.03330402     0.35490
H4558       H  0.92148859  0.29066183  0.01069652     0.40590
H4559       H  0.82525803  0.24569654  0.96692898     0.40210
H4560       H  0.82413055  0.27472050  0.96351333     0.35090
C4561       C  0.98038245  0.25549330  0.89909877    -0.26640
C4562       C  0.96126579  0.25731370  0.88429132    -0.14710
C4563       C  0.95961860  0.27623018  0.86884099     0.35920
C4564       C  0.97609083  0.29384635  0.86988119    -0.26080
C4565       C  0.99419472  0.29304351  0.88597572    -0.15320
C4566       C  0.99684509  0.27327978  0.90026787     0.37010
N4567       N  0.01552301  0.27169449  0.91659247    -0.89570
H4568       H  0.98177979  0.24089221  0.91082621     0.18120
H4569       H  0.97445110  0.30851558  0.85827058     0.18110
N4570       N  0.94094066  0.27776244  0.85247956    -0.88600
H4571       H  0.01543613  0.25562575  0.92499595     0.35490
H4572       H  0.01252383  0.28413759  0.92941380     0.40590
H4573       H  0.94277247  0.26395921  0.84089959     0.40210
H4574       H  0.94206611  0.29296251  0.84265665     0.35090
C4575       C  0.75586552  0.23960312  0.89754019    -0.26640
C4576       C  0.77741112  0.24682067  0.88902655    -0.14710
C4577       C  0.77979567  0.26861375  0.87840759     0.35920
C4578       C  0.76097097  0.28363826  0.87818761    -0.26080
C4579       C  0.73988965  0.27739165  0.88840548    -0.15320
C4580       C  0.73682825  0.25479453  0.89734642     0.37010
N4581       N  0.71529775  0.24712571  0.90717461    -0.89570
H4582       H  0.75407536  0.22248663  0.90508884     0.18120
H4583       H  0.76300182  0.30075126  0.87067083     0.18110
N4584       N  0.80150111  0.27557319  0.86834929    -0.88600
H4585       H  0.70948589  0.23324431  0.89717504     0.35490
H4586       H  0.70257380  0.25997653  0.90608067     0.40590
H4587       H  0.80491243  0.26462457  0.85432315     0.40210
H4588       H  0.80039008  0.29238939  0.86164727     0.35090
C4589       C  0.75630953  0.15447656  0.88467010    -0.26640
C4590       C  0.77242395  0.13583379  0.88495815    -0.14710
C4591       C  0.76372214  0.11319421  0.88712591     0.35920
C4592       C  0.73946782  0.10985405  0.88911737    -0.26080
C4593       C  0.72354774  0.12859258  0.88827065    -0.15320
C4594       C  0.73223208  0.15112260  0.88603492     0.37010
N4595       N  0.71666440  0.17065412  0.88610720    -0.89570
H4596       H  0.76246885  0.17212183  0.88370079     0.18120
H4597       H  0.73289060  0.09248756  0.89170164     0.18110
N4598       N  0.77934916  0.09376361  0.88726584    -0.88600
H4599       H  0.72576969  0.18613053  0.88401277     0.35490
H4600       H  0.70883924  0.17145711  0.90244589     0.40590
H4601       H  0.78739398  0.09306539  0.87103057     0.40210
H4602       H  0.77018921  0.07829674  0.88915760     0.35090
C4603       C  0.86239922  0.12748558  0.76971591    -0.26640
C4604       C  0.87964898  0.13904706  0.78234935    -0.14710
C4605       C  0.89763585  0.15006040  0.77006224     0.35920
C4606       C  0.89858446  0.14843368  0.74571613    -0.26080
C4607       C  0.88161472  0.13657704  0.73302988    -0.15320
C4608       C  0.86341816  0.12578887  0.74523515     0.37010
N4609       N  0.84630759  0.11284010  0.73281644    -0.89570
H4610       H  0.84788359  0.12006521  0.77898998     0.18120
H4611       H  0.91307149  0.15602043  0.73651286     0.18110
N4612       N  0.91490702  0.16293644  0.78238727    -0.88600
H4613       H  0.83399434  0.10613126  0.74427931     0.35490
H4614       H  0.85461070  0.09860086  0.72522884     0.40590
H4615       H  0.90677860  0.17729518  0.78992891     0.40210
H4616       H  0.92727755  0.16950764  0.77090373     0.35090
C4617       C  0.89012529  0.49273485  0.63809134    -0.26640
C4618       C  0.87160662  0.47714099  0.63492112    -0.14710
C4619       C  0.84955532  0.48636957  0.62966359     0.35920
C4620       C  0.84654716  0.51054366  0.62893525    -0.26080
C4621       C  0.86475641  0.52617480  0.63347202    -0.15320
C4622       C  0.88693867  0.51701345  0.63772995     0.37010
N4623       N  0.90613373  0.53215617  0.64174712    -0.89570
H4624       H  0.90708577  0.48584735  0.64229402     0.18120
H4625       H  0.82934342  0.51714841  0.62532693     0.18110
N4626       N  0.82949641  0.47212874  0.62635095    -0.88600
H4627       H  0.92152426  0.52263416  0.64294445     0.35490
H4628       H  0.90359236  0.53968889  0.65801015     0.40590
H4629       H  0.83347519  0.45454199  0.62727796     0.40210
H4630       H  0.82348438  0.47511520  0.60953470     0.35090
C4631       C  0.78583037  0.38623470  0.77967509    -0.26640
C4632       C  0.77770600  0.38305618  0.75699334    -0.14710
C4633       C  0.75446714  0.37690926  0.75342379     0.35920
C4634       C  0.74011451  0.37317742  0.77282632    -0.26080
C4635       C  0.74880153  0.37532323  0.79549236    -0.15320
C4636       C  0.77202634  0.38187907  0.79885130     0.37010
N4637       N  0.78196583  0.38336879  0.82165298    -0.89570
H4638       H  0.80363574  0.39099591  0.78279811     0.18120
H4639       H  0.72220067  0.36851350  0.77019784     0.18110
N4640       N  0.74557199  0.37454790  0.73034024    -0.88600
H4641       H  0.79886666  0.38971025  0.82100092     0.35490
H4642       H  0.78322308  0.36648776  0.82817894     0.40590
H4643       H  0.74639539  0.39082772  0.72240136     0.40210
H4644       H  0.72810705  0.36994463  0.73080264     0.35090
C4645       C  0.76416180  0.40361411  0.64559320    -0.26640
C4646       C  0.77453173  0.38440644  0.63489475    -0.14710
C4647       C  0.75995922  0.36719451  0.62521739     0.35920
C4648       C  0.73567117  0.36995042  0.62610180    -0.26080
C4649       C  0.72534846  0.38922805  0.63682669    -0.15320
C4650       C  0.73997699  0.40612548  0.64698543     0.37010
N4651       N  0.73092584  0.42597275  0.65915782    -0.89570
H4652       H  0.77498632  0.41622924  0.65418925     0.18120
H4653       H  0.72481565  0.35726274  0.61767308     0.18110
N4654       N  0.76917415  0.34659831  0.61455275    -0.88600
H4655       H  0.73719548  0.42523014  0.67612020     0.35490
H4656       H  0.71295989  0.42530851  0.66074146     0.40590
H4657       H  0.78722963  0.34671296  0.61427021     0.40210
H4658       H  0.76395441  0.34667643  0.59722371     0.35090
C4659       C  0.85109585  0.49647398  0.78837726    -0.26640
C4660       C  0.87331141  0.50134645  0.79648747    -0.14710
C4661       C  0.89292656  0.49276883  0.78472308     0.35920
C4662       C  0.88983900  0.47849605  0.76539742    -0.26080
C4663       C  0.86758232  0.47276670  0.75781233    -0.15320
C4664       C  0.84799093  0.48226732  0.76896796     0.37010
N4665       N  0.82512125  0.47765068  0.76044874    -0.89570
H4666       H  0.83618108  0.50350819  0.79742376     0.18120
H4667       H  0.90481399  0.47080632  0.75700864     0.18110
N4668       N  0.91577540  0.49732919  0.79332718    -0.88600
H4669       H  0.81280525  0.48715308  0.76979881     0.35490
H4670       H  0.82145732  0.46022451  0.76356028     0.40590
H4671       H  0.91899471  0.51498294  0.79099113     0.40210
H4672       H  0.92821084  0.48851773  0.78347420     0.35090
C4673       C  0.98166403  0.37266557  0.62426620    -0.26640
C4674       C  0.97446947  0.37245830  0.64746549    -0.14710
C4675       C  0.99165770  0.37106571  0.66500270     0.35920
C4676       C  0.01529253  0.37081285  0.65917835    -0.26080
C4677       C  0.02247888  0.37098242  0.63608790    -0.15320
C4678       C  0.00545057  0.37173675  0.61840760     0.37010
N4679       N  0.01245636  0.37124274  0.59449261    -0.89570
H4680       H  0.96877917  0.37391520  0.61072508     0.18120
H4681       H  0.02804124  0.36897876  0.67280319     0.18110
N4682       N  0.98522324  0.36889363  0.68890171    -0.88600
H4683       H  0.99801667  0.37172305  0.58363294     0.35490
H4684       H  0.02183840  0.38634009  0.59120365     0.40590
H4685       H  0.99218461  0.35339085  0.69527343     0.40210
H4686       H  0.99272662  0.38255584  0.69802629     0.35090
C4687       C  0.97792230  0.37624133  0.76132055    -0.26640
C4688       C  0.95517011  0.38147726  0.76788088    -0.14710
C4689       C  0.95009720  0.38782246  0.79095105     0.35920
C4690       C  0.96779231  0.38756629  0.80731468    -0.26080
C4691       C  0.99048000  0.38182700  0.80097425    -0.15320
C4692       C  0.99572715  0.37617509  0.77779502     0.37010
N4693       N  0.01884046  0.36972441  0.77125108    -0.89570
H4694       H  0.98162906  0.37152912  0.74351719     0.18120
H4695       H  0.96392486  0.39238556  0.82505656     0.18110
N4696       N  0.92715277  0.39502104  0.79758451    -0.88600
H4697       H  0.01976098  0.36613487  0.75351911     0.35490
H4698       H  0.02292382  0.35430735  0.77990217     0.40590
H4699       H  0.92340158  0.41037570  0.78867053     0.40210
H4700       H  0.92640824  0.39898080  0.81524302     0.35090
C4701       C  0.87911967  0.27087103  0.75848035    -0.26640
C4702       C  0.86852298  0.29212022  0.76369319    -0.14710
C4703       C  0.85905064  0.29602296  0.78592975     0.35920
C4704       C  0.86162738  0.27922176  0.80287184    -0.26080
C4705       C  0.87339601  0.25852681  0.79819555    -0.15320
C4706       C  0.88169985  0.25383859  0.77560403     0.37010
N4707       N  0.89356359  0.23267857  0.76968947    -0.89570
H4708       H  0.88614354  0.26784531  0.74130438     0.18120
H4709       H  0.85437055  0.28241476  0.81993198     0.18110
N4710       N  0.84627063  0.31659361  0.79171957    -0.88600
H4711       H  0.88348612  0.22400575  0.75748512     0.35490
H4712       H  0.89520522  0.22163291  0.78392717     0.40590
H4713       H  0.83311532  0.31897657  0.77953646     0.40210
H4714       H  0.85732133  0.33083586  0.79139187     0.35090
C4715       C  0.87964040  0.26155681  0.66409807    -0.26640
C4716       C  0.87881206  0.27700608  0.64510998    -0.14710
C4717       C  0.87850182  0.26779379  0.62254225     0.35920
C4718       C  0.87982464  0.24350963  0.61948304    -0.26080
C4719       C  0.88076841  0.22812559  0.63849955    -0.15320
C4720       C  0.88086274  0.23732273  0.66104350     0.37010
N4721       N  0.88302238  0.22214131  0.68070600    -0.89570
H4722       H  0.87957999  0.26850316  0.68153316     0.18120
H4723       H  0.88021980  0.23647448  0.60208898     0.18110
N4724       N  0.87630582  0.28297147  0.60289784    -0.88600
H4725       H  0.88281177  0.23165508  0.69610718     0.35490
H4726       H  0.89927324  0.21414413  0.67974800     0.40590
H4727       H  0.86011341  0.29106986  0.60399620     0.40210
H4728       H  0.87631297  0.27342830  0.58751698     0.35090
C4729       C  0.61310643  0.76933828  0.85572571    -0.26640
C4730       C  0.61453741  0.77729878  0.87851380    -0.14710
C4731       C  0.61687779  0.76084213  0.89667115     0.35920
C4732       C  0.61829301  0.73687082  0.89159751    -0.26080
C4733       C  0.61703571  0.72889797  0.86872344    -0.15320
C4734       C  0.61389842  0.74543824  0.85065062     0.37010
N4735       N  0.61098718  0.73785445  0.82711372    -0.89570
H4736       H  0.61010286  0.78175285  0.84193001     0.18120
H4737       H  0.62094805  0.72446494  0.90546068     0.18110
N4738       N  0.61766529  0.76862487  0.92029563    -0.88600
H4739       H  0.60889372  0.75199319  0.81594225     0.35490
H4740       H  0.59567293  0.72832983  0.82637778     0.40590
H4741       H  0.63259676  0.77857985  0.92218534     0.40210
H4742       H  0.61931030  0.75454016  0.93160657     0.35090
C4743       C  0.59654626  0.88300308  0.76666676    -0.26640
C4744       C  0.61268188  0.87322063  0.78246610    -0.14710
C4745       C  0.63181751  0.86117998  0.77326261     0.35920
C4746       C  0.63401754  0.85871921  0.74898198    -0.26080
C4747       C  0.61770604  0.86817420  0.73322632    -0.15320
C4748       C  0.59877537  0.88055999  0.74236685     0.37010
N4749       N  0.58162300  0.89022981  0.72714881    -0.89570
H4750       H  0.58171348  0.89245270  0.77326853     0.18120
H4751       H  0.64881948  0.84924005  0.74232891     0.18110
N4752       N  0.64903281  0.85153437  0.78840898    -0.88600
H4753       H  0.56906001  0.89930419  0.73658377     0.35490
H4754       H  0.57312893  0.87642942  0.71919232     0.40590
H4755       H  0.65744301  0.86537401  0.79638636     0.40210
H4756       H  0.66166240  0.84260562  0.77891953     0.35090
C4757       C  0.60826428  0.99489851  0.87359400    -0.26640
C4758       C  0.62277836  0.97865205  0.88522337    -0.14710
C4759       C  0.64117676  0.98746411  0.89839816     0.35920
C4760       C  0.64358679  0.01156794  0.90091267    -0.26080
C4761       C  0.62769702  0.02761445  0.89110819    -0.15320
C4762       C  0.61046538  0.01906892  0.87643842     0.37010
N4763       N  0.59450198  0.03475253  0.86545191    -0.89570
H4764       H  0.59439230  0.98881716  0.86266183     0.18120
H4765       H  0.65775018  0.01766428  0.91143855     0.18110
N4766       N  0.65733484  0.97258902  0.90992889    -0.88600
H4767       H  0.58227177  0.02562260  0.85583385     0.35490
H4768       H  0.60390480  0.04468745  0.85358060     0.40590
H4769       H  0.66524334  0.96195839  0.89754995     0.40210
H4770       H  0.64828961  0.96232289  0.92177866     0.35090
C4771       C  0.63658681  0.87703137  0.02182320    -0.26640
C4772       C  0.61692092  0.88397060  0.03469920    -0.14710
C4773       C  0.59714471  0.89145454  0.02238007     0.35920
C4774       C  0.59742461  0.89129129  0.99800875    -0.26080
C4775       C  0.61669522  0.88347410  0.98502539    -0.15320
C4776       C  0.63666691  0.87635925  0.99731771     0.37010
N4777       N  0.65698793  0.86770908  0.98574009    -0.89570
H4778       H  0.65226888  0.87230511  0.03097750     0.18120
H4779       H  0.58179266  0.89649535  0.98900239     0.18110
N4780       N  0.57664543  0.89990324  0.03384513    -0.88600
H4781       H  0.67060996  0.87886165  0.98968364     0.35490
H4782       H  0.65509182  0.86826647  0.96777722     0.40590
H4783       H  0.57814293  0.89903697  0.05182847     0.40210
H4784       H  0.56304635  0.88889542  0.02943539     0.35090
C4785       C  0.38705065  0.76291627  0.11734346    -0.26640
C4786       C  0.36896048  0.77857627  0.12293294    -0.14710
C4787       C  0.34725770  0.76950446  0.12897735     0.35920
C4788       C  0.34414494  0.74528189  0.12923860    -0.26080
C4789       C  0.36223223  0.72950300  0.12382185    -0.15320
C4790       C  0.38395554  0.73860509  0.11767803     0.37010
N4791       N  0.40285869  0.72335613  0.11209095    -0.89570
H4792       H  0.40375079  0.76975054  0.11229979     0.18120
H4793       H  0.32722718  0.73869447  0.13382815     0.18110
N4794       N  0.32815978  0.78478045  0.13386954    -0.88600
H4795       H  0.41797736  0.73282054  0.10923100     0.35490
H4796       H  0.39891794  0.71545756  0.09631960     0.40590
H4797       H  0.33159427  0.79284013  0.14967204     0.40210
H4798       H  0.31295149  0.77535112  0.13634719     0.35090
C4799       C  0.26213146  0.85307554  0.11466185    -0.26640
C4800       C  0.27244503  0.87219004  0.12537707    -0.14710
C4801       C  0.25770048  0.88919185  0.13555800     0.35920
C4802       C  0.23341528  0.88622603  0.13530910    -0.26080
C4803       C  0.22316527  0.86696639  0.12470141    -0.15320
C4804       C  0.23794272  0.85033144  0.11395552     0.37010
N4805       N  0.22903492  0.83047205  0.10191370    -0.89570
H4806       H  0.27298939  0.84064220  0.10561754     0.18120
H4807       H  0.22251592  0.89874638  0.14415821     0.18110
N4808       N  0.26671154  0.90983760  0.14604563    -0.88600
H4809       H  0.23482527  0.83143295  0.08475665     0.35490
H4810       H  0.21101822  0.83090066  0.10096806     0.40590
H4811       H  0.28476639  0.90993067  0.14578688     0.40210
H4812       H  0.26189160  0.90962824  0.16351923     0.35090
C4813       C  0.51435403  0.86882310  0.12595658    -0.26640
C4814       C  0.52103984  0.88545131  0.14202444    -0.14710
C4815       C  0.50347539  0.89552687  0.15635581     0.35920
C4816       C  0.47984757  0.89219097  0.15113281    -0.26080
C4817       C  0.47312771  0.87753847  0.13317105    -0.15320
C4818       C  0.49089969  0.86425320  0.12184239     0.37010
N4819       N  0.48600280  0.84575049  0.10614762    -0.89570
H4820       H  0.52741290  0.85982470  0.11584010     0.18120
H4821       H  0.46668039  0.90129208  0.16099327     0.18110
N4822       N  0.50953272  0.90884788  0.17642303    -0.88600
H4823       H  0.47919892  0.85251414  0.09087664     0.35490
H4824       H  0.47430135  0.83437462  0.11394959     0.40590
H4825       H  0.51810573  0.89772423  0.18789853     0.40210
H4826       H  0.49473780  0.91483220  0.18504672     0.35090
C4827       C  0.46476223  0.87393285  0.99240140    -0.26640
C4828       C  0.46858769  0.88558051  0.01325494    -0.14710
C4829       C  0.49050954  0.89533434  0.01790969     0.35920
C4830       C  0.50763883  0.89443462  0.00064197    -0.26080
C4831       C  0.50311877  0.88389108  0.97930207    -0.15320
C4832       C  0.48189277  0.87275564  0.97545443     0.37010
N4833       N  0.47769395  0.86074710  0.95406782    -0.89570
H4834       H  0.44817362  0.86586343  0.98923870     0.18120
H4835       H  0.52417529  0.90268855  0.00355984     0.18110
N4836       N  0.49577664  0.90665657  0.03942030    -0.88600
H4837       H  0.46106774  0.85370399  0.95391207     0.35490
H4838       H  0.48927785  0.84679613  0.95325452     0.40590
H4839       H  0.48175442  0.90634011  0.05083877     0.40210
H4840       H  0.49902982  0.92408881  0.03574747     0.35090
C4841       C  0.37715097  0.99589945  0.10551100    -0.26640
C4842       C  0.37724605  0.98068432  0.12484708    -0.14710
C4843       C  0.37963457  0.99034354  0.14706154     0.35920
C4844       C  0.38154130  0.01473011  0.14936321    -0.26080
C4845       C  0.38027001  0.02979397  0.13000056    -0.15320
C4846       C  0.37824879  0.02013146  0.10784862     0.37010
N4847       N  0.37796460  0.03485456  0.08771789    -0.89570
H4848       H  0.37607394  0.98887508  0.08817446     0.18120
H4849       H  0.38388745  0.02210487  0.16644132     0.18110
N4850       N  0.37979167  0.97557173  0.16711831    -0.88600
H4851       H  0.37603748  0.02503538  0.07264641     0.35490
H4852       H  0.39411549  0.04284356  0.08650226     0.40590
H4853       H  0.36354208  0.96778585  0.16833150     0.40210
H4854       H  0.38183539  0.98540596  0.18216233     0.35090
C4855       C  0.26353730  0.11275064  0.85414332    -0.26640
C4856       C  0.27280956  0.11596543  0.87623045    -0.14710
C4857       C  0.25727128  0.11863190  0.89527785     0.35920
C4858       C  0.23314544  0.11849074  0.89158336    -0.26080
C4859       C  0.22388998  0.11551643  0.86938711    -0.15320
C4860       C  0.23950785  0.11204405  0.85053070     0.37010
N4861       N  0.23171288  0.10675304  0.82753455    -0.89570
H4862       H  0.27507808  0.10943927  0.83966678     0.18120
H4863       H  0.22159983  0.12173271  0.90606157     0.18110
N4864       N  0.26528611  0.12233308  0.91852990    -0.88600
H4865       H  0.23506752  0.12117614  0.81711581     0.35490
H4866       H  0.21401375  0.10337241  0.82698747     0.40590
H4867       H  0.28320235  0.12429397  0.91921393     0.40210
H4868       H  0.26106471  0.10765786  0.92828334     0.35090
C4869       C  0.36194572  0.14073810  0.74961666    -0.26640
C4870       C  0.36635761  0.12354854  0.73268830    -0.14710
C4871       C  0.37372277  0.10154723  0.74014034     0.35920
C4872       C  0.37615437  0.09714053  0.76410107    -0.26080
C4873       C  0.37153045  0.11423322  0.78117207    -0.15320
C4874       C  0.36456153  0.13640344  0.77361465     0.37010
N4875       N  0.36015249  0.15445033  0.79018804    -0.89570
H4876       H  0.35619888  0.15775571  0.74406939     0.18120
H4877       H  0.38118624  0.07984941  0.76933687     0.18110
N4878       N  0.37790628  0.08348287  0.72350053    -0.88600
H4879       H  0.35474163  0.16961961  0.78182905     0.35490
H4880       H  0.37585260  0.15831264  0.79821410     0.40590
H4881       H  0.36213055  0.07960617  0.71562753     0.40210
H4882       H  0.38344868  0.06830788  0.73176472     0.35090
C4883       C  0.48431677  0.11243493  0.90558755    -0.26640
C4884       C  0.47283956  0.12690986  0.88964733    -0.14710
C4885       C  0.48646953  0.14048764  0.87445677     0.35920
C4886       C  0.51098320  0.13950623  0.87578001    -0.26080
C4887       C  0.52233991  0.12450452  0.89133936    -0.15320
C4888       C  0.50869853  0.11124439  0.90674941     0.37010
N4889       N  0.51970648  0.09622953  0.92336019    -0.89570
H4890       H  0.47410648  0.10103170  0.91645770     0.18120
H4891       H  0.52128800  0.15067981  0.86477737     0.18110
N4892       N  0.47536636  0.15494479  0.85745225    -0.88600
H4893       H  0.50734113  0.08696538  0.93278496     0.35490
H4894       H  0.52831640  0.10662292  0.93533669     0.40590
H4895       H  0.46689075  0.14413476  0.84574216     0.40210
H4896       H  0.48769566  0.16409537  0.84786709     0.35090
C4897       C  0.46644613  0.98898278  0.88437201    -0.26640
C4898       C  0.47219617  0.01075121  0.89318961    -0.14710
C4899       C  0.49544577  0.01579927  0.89878601     0.35920
C4900       C  0.51204174  0.99797343  0.89720991    -0.26080
C4901       C  0.50560600  0.97570615  0.89004026    -0.15320
C4902       C  0.48283682  0.97149986  0.88274146     0.37010
N4903       N  0.47622226  0.94938946  0.87367293    -0.89570
H4904       H  0.44888627  0.98531292  0.87898592     0.18120
H4905       H  0.52973203  0.00126546  0.90236795     0.18110
N4906       N  0.50258329  0.03820654  0.90684795    -0.88600
H4907       H  0.46977613  0.95188413  0.85694200     0.35490
H4908       H  0.46285984  0.94285858  0.88400603     0.40590
H4909       H  0.48871868  0.04985230  0.90748288     0.40210
H4910       H  0.51430493  0.04484061  0.89473336     0.35090
C4911       C  0.38173710  0.14676915  0.99061266    -0.26640
C4912       C  0.36845901  0.12806422  0.98325258    -0.14710
C4913       C  0.35663885  0.11471920  0.00055517     0.35920
C4914       C  0.36145791  0.11802114  0.02427199    -0.26080
C4915       C  0.37651634  0.13530034  0.03149092    -0.15320
C4916       C  0.38507857  0.15113322  0.01446346     0.37010
N4917       N  0.39706862  0.17173972  0.02136719    -0.89570
H4918       H  0.38974002  0.15788064  0.97777480     0.18120
H4919       H  0.35398893  0.10652859  0.03710589     0.18110
N4920       N  0.33996465  0.09749669  0.99412716    -0.88600
H4921       H  0.40210836  0.18146134  0.00691861     0.35490
H4922       H  0.38538534  0.18200143  0.03072232     0.40590
H4923       H  0.32597409  0.10618285  0.98655152     0.40210
H4924       H  0.33342264  0.08897210  0.00872661     0.35090
C4925       C  0.39126562  0.01324999  0.00262997    -0.26640
C4926       C  0.37688201  0.01178460  0.98320423    -0.14710
C4927       C  0.36134642  0.99324826  0.98081782     0.35920
C4928       C  0.36156189  0.97552347  0.99724852    -0.26080
C4929       C  0.37690655  0.97616280  0.01587833    -0.15320
C4930       C  0.39140117  0.99537204  0.01920660     0.37010
N4931       N  0.40646847  0.99630200  0.03894095    -0.89570
H4932       H  0.40304934  0.02769594  0.00425537     0.18120
H4933       H  0.35035419  0.96067883  0.99508317     0.18110
N4934       N  0.34626393  0.99200769  0.96107692    -0.88600
H4935       H  0.41583142  0.01175696  0.03888373     0.35490
H4936       H  0.41853804  0.98283863  0.03734376     0.40590
H4937       H  0.33460961  0.00587951  0.96217209     0.40210
H4938       H  0.33638253  0.97689097  0.96163874     0.35090
C4939       C  0.37891856  0.66092451  0.76580814    -0.26640
C4940       C  0.37636749  0.64190437  0.78109355    -0.14710
C4941       C  0.37502807  0.61944993  0.77133424     0.35920
C4942       C  0.37669347  0.61684181  0.74707583    -0.26080
C4943       C  0.37914657  0.63591516  0.73191292    -0.15320
C4944       C  0.38022432  0.65833146  0.74161208     0.37010
N4945       N  0.38374841  0.67877843  0.72776953    -0.89570
H4946       H  0.37995716  0.67831749  0.77277956     0.18120
H4947       H  0.37647426  0.59948212  0.73992948     0.18110
N4948       N  0.37126611  0.59899520  0.78505264    -0.88600
H4949       H  0.36928662  0.68950969  0.73001479     0.35490
H4950       H  0.38459769  0.67496165  0.71014149     0.40590
H4951       H  0.36927911  0.60280046  0.80256908     0.40210
H4952       H  0.38600533  0.58852541  0.78352287     0.35090
C4953       C  0.45866023  0.77677417  0.90257086    -0.26640
C4954       C  0.45862254  0.76017470  0.88494241    -0.14710
C4955       C  0.47595944  0.76016914  0.86780193     0.35920
C4956       C  0.49304030  0.77733072  0.86836344    -0.26080
C4957       C  0.49279788  0.79420789  0.88572630    -0.15320
C4958       C  0.47563069  0.79396875  0.90309892     0.37010
N4959       N  0.47549386  0.81118318  0.92108403    -0.89570
H4960       H  0.44519083  0.77650265  0.91568223     0.18120
H4961       H  0.50623458  0.77789510  0.85499462     0.18110
N4962       N  0.47561999  0.74330682  0.84952626    -0.88600
H4963       H  0.46212014  0.80803715  0.93290056     0.35490
H4964       H  0.47179486  0.82718758  0.91339992     0.40590
H4965       H  0.47844376  0.72706642  0.85703763     0.40210
H4966       H  0.48933251  0.74606409  0.83800865     0.35090
C4967       C  0.48194175  0.62085516  0.86859472    -0.26640
C4968       C  0.47428505  0.64259285  0.87620350    -0.14710
C4969       C  0.49127171  0.65942761  0.88222142     0.35920
C4970       C  0.51504771  0.65404140  0.88079625    -0.26080
C4971       C  0.52262734  0.63257550  0.87270896    -0.15320
C4972       C  0.50581810  0.61563700  0.86681374     0.37010
N4973       N  0.51305823  0.59306808  0.85904362    -0.89570
H4974       H  0.46929190  0.60779545  0.86425419     0.18120
H4975       H  0.52775001  0.66715621  0.88484716     0.18110
N4976       N  0.48444762  0.68238307  0.88904993    -0.88600
H4977       H  0.49875292  0.58275632  0.85522976     0.35490
H4978       H  0.52168972  0.58501164  0.87279082     0.40590
H4979       H  0.47670485  0.69015542  0.87464556     0.40210
H4980       H  0.49882517  0.69248275  0.89315235     0.35090
C4981       C  0.38261964  0.64788149  0.99915388    -0.26640
C4982       C  0.37279635  0.63265949  0.98260689    -0.14710
C4983       C  0.36151141  0.61270676  0.99073465     0.35920
C4984       C  0.35940448  0.60909336  0.01483025    -0.26080
C4985       C  0.36751491  0.62535695  0.03122662    -0.15320
C4986       C  0.38006747  0.64449086  0.02320326     0.37010
N4987       N  0.38916997  0.66103326  0.03932399    -0.89570
H4988       H  0.39190012  0.66309960  0.99340937     0.18120
H4989       H  0.35047545  0.59374932  0.02076198     0.18110
N4990       N  0.35178171  0.59642918  0.97475448    -0.88600
H4991       H  0.39725934  0.67464531  0.03054512     0.35490
H4992       H  0.40206374  0.65264939  0.04890390     0.40590
H4993       H  0.33754640  0.60452015  0.96700519     0.40210
H4994       H  0.34525191  0.58203106  0.98358775     0.35090
C4995       C  0.35085619  0.77008322  0.97789573    -0.26640
C4996       C  0.36582133  0.75096004  0.98017636    -0.14710
C4997       C  0.38074640  0.74977155  0.99947573     0.35920
C4998       C  0.38242279  0.76904867  0.01418053    -0.26080
C4999       C  0.36933584  0.78923675  0.01016059    -0.15320
C5000       C  0.35258976  0.78933276  0.99244348     0.37010
N5001       N  0.33773727  0.80907621  0.98881835    -0.89570
H5002       H  0.33867378  0.77074491  0.96367078     0.18120
H5003       H  0.39476923  0.76856052  0.02822721     0.18110
N5004       N  0.39470462  0.72956535  0.00374152    -0.88600
H5005       H  0.32441116  0.80497553  0.97734767     0.35490
H5006       H  0.34755032  0.82177097  0.98046138     0.40590
H5007       H  0.38345425  0.71609384  0.00807810     0.40210
H5008       H  0.40533870  0.73199694  0.01814627     0.35090
C5009       C  0.26212903  0.64239681  0.90660087    -0.26640
C5010       C  0.27305227  0.63195152  0.88752405    -0.14710
C5011       C  0.25888034  0.62286341  0.86974318     0.35920
C5012       C  0.23440234  0.62406913  0.87165260    -0.26080
C5013       C  0.22355052  0.63494542  0.89058220    -0.15320
C5014       C  0.23785842  0.64404166  0.90837333     0.37010
N5015       N  0.22841921  0.65581019  0.92824411    -0.89570
H5016       H  0.27262142  0.65075025  0.91965760     0.18120
H5017       H  0.22374659  0.61611941  0.85849462     0.18110
N5018       N  0.26945063  0.61256758  0.84963905    -0.88600
H5019       H  0.23170267  0.64551786  0.94280585     0.35490
H5020       H  0.21053694  0.65804857  0.92706661     0.40590
H5021       H  0.27810078  0.62562593  0.84057155     0.40210
H5022       H  0.25680793  0.60621536  0.83843764     0.35090
C5023       C  0.13665089  0.98819952  0.85400418    -0.26640
C5024       C  0.13232771  0.97847157  0.87579810    -0.14710
C5025       C  0.12655038  0.99350179  0.89451023     0.35920
C5026       C  0.12512293  0.01766801  0.89081434    -0.26080
C5027       C  0.12930629  0.02732510  0.86891688    -0.15320
C5028       C  0.13534614  0.01232637  0.85037415     0.37010
N5029       N  0.14040568  0.02175915  0.82783921    -0.91010
H5030       H  0.14212640  0.97698489  0.83995219     0.18120
H5031       H  0.11992826  0.02886063  0.90498044     0.18110
N5032       N  0.12205863  0.98488697  0.91748881    -0.88600
H5033       H  0.14443926  0.00857384  0.81607684     0.35490
H5034       H  0.15518762  0.03199816  0.82936952     0.40590
H5035       H  0.12262455  0.96681562  0.91805195     0.40210
H5036       H  0.10508352  0.98952632  0.92182881     0.35090
C5037       C  0.10921514  0.87629256  0.99308082    -0.26640
C5038       C  0.13122723  0.87329642  0.98330954    -0.14710
C5039       C  0.15015785  0.86833031  0.99826498     0.35920
C5040       C  0.14701069  0.86819185  0.02245846    -0.26080
C5041       C  0.12519436  0.87175422  0.03223988    -0.15320
C5042       C  0.10595656  0.87514605  0.01737631     0.37010
N5043       N  0.08314191  0.87743349  0.02710540    -0.89570
H5044       H  0.09473625  0.88032195  0.98187449     0.18120
H5045       H  0.16147353  0.86418246  0.03370850     0.18110
N5046       N  0.17266465  0.86336227  0.98873602    -0.88600
H5047       H  0.07087911  0.87968081  0.01400085     0.35490
H5048       H  0.08283198  0.89253714  0.03707750     0.40590
H5049       H  0.17138167  0.84810764  0.97909565     0.40210
H5050       H  0.18464434  0.86012512  0.00189713     0.35090
C5051       C  0.24449225  0.86755038  0.99874834    -0.26640
C5052       C  0.24681769  0.87785923  0.97690507    -0.14710
C5053       C  0.26737094  0.88966307  0.97102804     0.35920
C5054       C  0.28575328  0.88946594  0.98643335    -0.26080
C5055       C  0.28397457  0.87811671  0.00778259    -0.15320
C5056       C  0.26285282  0.86776104  0.01452945     0.37010
N5057       N  0.25975472  0.85639513  0.03652234    -0.89570
H5058       H  0.22868376  0.85856415  0.00323146     0.18120
H5059       H  0.30167622  0.89810587  0.98159646     0.18110
N5060       N  0.27011359  0.90191889  0.94955248    -0.88600
H5061       H  0.24700820  0.86553439  0.04565304     0.35490
H5062       H  0.27470122  0.85687411  0.04658321     0.40590
H5063       H  0.25653177  0.91383227  0.94787269     0.40210
H5064       H  0.26951990  0.89023690  0.93579446     0.35090
C5065       C  0.25157142  0.98198964  0.88394594    -0.26640
C5066       C  0.25892534  0.95876517  0.88359516    -0.14710
C5067       C  0.28285664  0.95360292  0.88447173     0.35920
C5068       C  0.29872652  0.97170721  0.88459269    -0.26080
C5069       C  0.29149995  0.99490987  0.88499689    -0.15320
C5070       C  0.26763878  0.00020411  0.88461077     0.37010
N5071       N  0.25977623  0.02386332  0.88461774    -0.89570
H5072       H  0.23322639  0.98592282  0.88349009     0.18120
H5073       H  0.31699832  0.96750455  0.88530406     0.18110
N5074       N  0.29114193  0.93013336  0.88631368    -0.88600
H5075       H  0.24170268  0.02466785  0.88455335     0.35490
H5076       H  0.26536016  0.03148639  0.86914802     0.40590
H5077       H  0.28584723  0.92375265  0.90243810     0.40210
H5078       H  0.30922163  0.92945259  0.88621907     0.35090
C5079       C  0.28043313  0.76993828  0.88587133    -0.26640
C5080       C  0.27591875  0.74733775  0.89323903    -0.14710
C5081       C  0.25301272  0.74057480  0.89861794     0.35920
C5082       C  0.23541618  0.75745557  0.89813881    -0.26080
C5083       C  0.24055001  0.78043829  0.89219724    -0.15320
C5084       C  0.26309220  0.78644790  0.88519583     0.37010
N5085       N  0.26852670  0.80938167  0.87729234    -0.89570
H5086       H  0.29771169  0.77499920  0.88060433     0.18120
H5087       H  0.21793514  0.75281085  0.90306417     0.18110
N5088       N  0.24717886  0.71731941  0.90536547    -0.88600
H5089       H  0.27519301  0.80821611  0.86047152     0.35490
H5090       H  0.28142389  0.81608448  0.88799648     0.40590
H5091       H  0.26170224  0.70650150  0.90551701     0.40210
H5092       H  0.23599477  0.71072348  0.89282509     0.35090
C5093       C  0.10788656  0.76716734  0.87896229    -0.26640
C5094       C  0.12471126  0.77891701  0.89190864    -0.14710
C5095       C  0.14129947  0.76549497  0.90422351     0.35920
C5096       C  0.14059556  0.74115200  0.90334265    -0.26080
C5097       C  0.12384730  0.72937918  0.89043326    -0.15320
C5098       C  0.10696826  0.74261877  0.87852638     0.37010
N5099       N  0.08890277  0.73106912  0.86606081    -0.89570
H5100       H  0.09580790  0.77717853  0.86862490     0.18120
H5101       H  0.15276317  0.73127028  0.91372079     0.18110
N5102       N  0.15907277  0.77597459  0.91802408    -0.88600
H5103       H  0.07812146  0.74317239  0.85791238     0.35490
H5104       H  0.07860944  0.72234186  0.87814038     0.40590
H5105       H  0.15731212  0.79397212  0.91871843     0.40210
H5106       H  0.17499283  0.77230895  0.91017361     0.35090
C5107       C  0.15376069  0.87666562  0.76577400    -0.26640
C5108       C  0.13576354  0.88227596  0.78156378    -0.14710
C5109       C  0.11435468  0.88961250  0.77254228     0.35920
C5110       C  0.11167084  0.89181888  0.74831764    -0.26080
C5111       C  0.12974134  0.88655070  0.73258134    -0.15320
C5112       C  0.15103945  0.87882857  0.74151849     0.37010
N5113       N  0.17002985  0.87390996  0.72613090    -0.89570
H5114       H  0.17032877  0.87087985  0.77240309     0.18120
H5115       H  0.09519439  0.89780457  0.74162729     0.18110
N5116       N  0.09530407  0.89450160  0.78783759    -0.88600
H5117       H  0.18449630  0.86830783  0.73546695     0.35490
H5118       H  0.17471336  0.88945264  0.71808696     0.40590
H5119       H  0.09068764  0.87893932  0.79588237     0.40210
H5120       H  0.08083937  0.90000127  0.77844500     0.35090
C5121       C  0.39452497  0.76580082  0.65407966    -0.26640
C5122       C  0.38130145  0.77886271  0.63828612    -0.14710
C5123       C  0.36899240  0.76708695  0.62086219     0.35920
C5124       C  0.37029852  0.74260378  0.61957637    -0.26080
C5125       C  0.38299780  0.72961138  0.63586671    -0.15320
C5126       C  0.39573951  0.74144046  0.65288299     0.37010
N5127       N  0.40975134  0.72861910  0.66903961    -0.89570
H5128       H  0.40331649  0.77469108  0.66801458     0.18120
H5129       H  0.36141814  0.73359787  0.60578602     0.18110
N5130       N  0.35480918  0.77994896  0.60491829    -0.88600
H5131       H  0.41758013  0.73982410  0.68083594     0.35490
H5132       H  0.42318052  0.72074497  0.65971610     0.40590
H5133       H  0.34135364  0.78760315  0.61438311     0.40210
H5134       H  0.34706394  0.76877091  0.59304051     0.35090
C5135       C  0.48022969  0.84997533  0.63418761    -0.26640
C5136       C  0.47304999  0.87290609  0.63693105    -0.14710
C5137       C  0.49006104  0.89049028  0.63848965     0.35920
C5138       C  0.51384896  0.88472509  0.63705199    -0.26080
C5139       C  0.52113244  0.86166049  0.63456218    -0.15320
C5140       C  0.50390907  0.84403065  0.63371989     0.37010
N5141       N  0.51039326  0.81993794  0.63341447    -0.89570
H5142       H  0.46730704  0.83643849  0.63402327     0.18120
H5143       H  0.52670565  0.89829851  0.63767344     0.18110
N5144       N  0.48304729  0.91420743  0.64172654    -0.88600
H5145       H  0.49582773  0.80929502  0.63272734     0.35490
H5146       H  0.51871931  0.81625062  0.64905819     0.40590
H5147       H  0.47381414  0.91929882  0.62700777     0.40210
H5148       H  0.49748300  0.92499809  0.64270977     0.35090
C5149       C  0.39854717  0.78018474  0.77101583    -0.26640
C5150       C  0.37964141  0.78313222  0.75611888    -0.14710
C5151       C  0.36006417  0.76875005  0.75845181     0.35920
C5152       C  0.35913281  0.75309105  0.77698378    -0.26080
C5153       C  0.37691801  0.75227022  0.79338427    -0.15320
C5154       C  0.39736496  0.76486646  0.78975448     0.37010
N5155       N  0.41650579  0.76253905  0.80545465    -0.89570
H5156       H  0.41380370  0.79080033  0.76875502     0.18120
H5157       H  0.34360979  0.74298639  0.77973286     0.18110
N5158       N  0.34052475  0.77124562  0.74327116    -0.88600
H5159       H  0.43018436  0.77320076  0.80035879     0.35490
H5160       H  0.42255367  0.74546820  0.80433077     0.40590
H5161       H  0.33262639  0.78715463  0.74700983     0.40210
H5162       H  0.32814232  0.75856960  0.74682100     0.35090
C5163       C  0.47535292  0.87611587  0.80154034    -0.26640
C5164       C  0.49866245  0.87910029  0.79575965    -0.14710
C5165       C  0.50532076  0.87895176  0.77208999     0.35920
C5166       C  0.48839538  0.87645337  0.75499490    -0.26080
C5167       C  0.46505854  0.87382668  0.76098136    -0.15320
C5168       C  0.45853745  0.87325350  0.78468195     0.37010
N5169       N  0.43482142  0.87043268  0.79181467    -0.89570
H5170       H  0.46994783  0.87608782  0.81952980     0.18120
H5171       H  0.49350215  0.87668901  0.73691135     0.18110
N5172       N  0.52886697  0.88095974  0.76470863    -0.88600
H5173       H  0.43283410  0.87325650  0.80960343     0.35490
H5174       H  0.43053235  0.85307061  0.78909362     0.40590
H5175       H  0.53896775  0.86886204  0.77368893     0.40210
H5176       H  0.53451485  0.89773402  0.76813405     0.35090
C5177       C  0.36475705  0.98736223  0.62343394    -0.26640
C5178       C  0.36687781  0.97906989  0.64611854    -0.14710
C5179       C  0.36817601  0.99532248  0.66459043     0.35920
C5180       C  0.36807537  0.01928109  0.65990985    -0.26080
C5181       C  0.36584223  0.02753251  0.63729992    -0.15320
C5182       C  0.36418512  0.01140722  0.61883455     0.37010
N5183       N  0.36195218  0.01959591  0.59539903    -0.89570
H5184       H  0.36411926  0.97511118  0.60925331     0.18120
H5185       H  0.36848434  0.03156424  0.67408402     0.18110
N5186       N  0.36903849  0.98743312  0.68821567    -0.88600
H5187       H  0.36086213  0.00568391  0.58388012     0.35490
H5188       H  0.37710216  0.02851601  0.59121607     0.40590
H5189       H  0.35345466  0.97901530  0.69179447     0.40210
H5190       H  0.37004233  0.00140842  0.69966930     0.35090
C5191       C  0.39054030  0.98436789  0.76146899    -0.26640
C5192       C  0.37358178  0.96708367  0.76193195    -0.14710
C5193       C  0.35706112  0.96680200  0.77995843     0.35920
C5194       C  0.35906185  0.98258713  0.79819684    -0.26080
C5195       C  0.37709392  0.99871228  0.79870087    -0.15320
C5196       C  0.39264332  0.00011987  0.77982226     0.37010
N5197       N  0.41118060  0.01663967  0.77982601    -0.89570
H5198       H  0.40315719  0.98469143  0.74757537     0.18120
H5199       H  0.34668204  0.98198492  0.81230918     0.18110
N5200       N  0.33864037  0.95013920  0.77994551    -0.88600
H5201       H  0.42060908  0.01573482  0.76436122     0.35490
H5202       H  0.42260720  0.01189536  0.79304175     0.40590
H5203       H  0.32821063  0.95366196  0.76558261     0.40210
H5204       H  0.32814104  0.95210660  0.79460305     0.35090
C5205       C  0.29327325  0.87684504  0.78643373    -0.26640
C5206       C  0.28665663  0.87690995  0.76312792    -0.14710
C5207       C  0.26327909  0.87358444  0.75722110     0.35920
C5208       C  0.24684538  0.87084691  0.77505195    -0.26080
C5209       C  0.25363787  0.87126107  0.79839754    -0.15320
C5210       C  0.27725368  0.87377819  0.80407494     0.37010
N5211       N  0.28515314  0.87264705  0.82770053    -0.89570
H5212       H  0.31128590  0.87828253  0.79117200     0.18120
H5213       H  0.22875273  0.86874960  0.77074229     0.18110
N5214       N  0.25636919  0.87309379  0.73332994    -0.88600
H5215       H  0.30291559  0.87577218  0.82881944     0.35490
H5216       H  0.28264293  0.85567341  0.83353781     0.40590
H5217       H  0.25957312  0.88946863  0.72626942     0.40210
H5218       H  0.23855543  0.87035674  0.73203099     0.35090
C5219       C  0.24106457  0.89157008  0.61739581    -0.26640
C5220       C  0.22403829  0.88753240  0.63459137    -0.14710
C5221       C  0.23120338  0.88043800  0.65668579     0.35920
C5222       C  0.25500721  0.87798170  0.66125619    -0.26080
C5223       C  0.27224123  0.88199766  0.64416420    -0.15320
C5224       C  0.26498429  0.88864657  0.62185106     0.37010
N5225       N  0.28175488  0.89244093  0.60384094    -0.89570
H5226       H  0.23564685  0.89722861  0.60033828     0.18120
H5227       H  0.25993641  0.87341065  0.67871424     0.18110
N5228       N  0.21440144  0.87661294  0.67470439    -0.88600
H5229       H  0.27358449  0.89759251  0.58852293     0.35490
H5230       H  0.28976398  0.87653197  0.60035384     0.40590
H5231       H  0.20656836  0.89254493  0.67847368     0.40210
H5232       H  0.22245788  0.87106585  0.68994135     0.35090
loop_ 
_geom_bond_atom_site_label_1 
_geom_bond_atom_site_label_2 
_geom_bond_distance 
_geom_bond_site_symmetry_2 
_ccdc_geom_bond_type 
C1           N19   1.352       .  A
C1           C38   1.456       .  S
C1         C5206   1.467       .  S
N2           N19   1.325       .  A
N2           N24   1.312       .  A
N2          Co39   2.071       .  S
C3           N28   1.346       .  A
C3           C41   1.471       .  S
C3           H48   1.082       .  S
H4           C45   1.081       .  S
C5           N29   1.361       .  A
C5            C9   1.488       .  S
C5           H34   1.081       .  S
Co6          N24   2.042       .  S
Co6          N14   2.059       .  S
Co6          N46   2.056       .  S
Co6          N22   2.038       .  S
Co6         Cl50   2.430       .  S
N7           C45   1.340       .  A
N7           N14   1.312       .  A
N7           Co8   2.065       .  S
Co8          N11   2.042       .  S
Co8          N28   2.079       .  S
Co8          N15   2.040       .  S
Co8         Cl50   2.447       .  S
C9           N47   1.334       .  A
C9         C5178   1.492       .  S
N10          N17   1.320       .  A
N10          N40   1.342       .  A
N10         Co43   2.178       .  S
N11          N29   1.325       .  A
N11          N47   1.314       .  A
N12          C41   1.338       .  A
N12          N22   1.310       .  A
H13          C38   1.081       .  S
N14          N35   1.319       .  A
N15          N33   1.325       .  A
N15          N20   1.317       .  A
C16          N20   1.335       .  A
C16          C44   1.487       .  S
C16        C5136   1.489       .  S
N17          C32   1.322       .  A
N17         Co39   2.025       .  S
C18          N46   1.333       .  A
C18          C21   1.455       .  S
C18          H52   1.081       .  S
C21          N42   1.349       .  A
C21        C5150   1.466       .  S
N22          N28   1.313       .  A
N23          C49   1.326       .  A
N23          N25   1.323       .  A
N23         Co39   2.037       .  S
N24          C38   1.327       .  A
N25          N53   1.340       .  A
N25         Co43   2.165       .  S
H26          C49   1.081       .  S
H27          C44   1.081       .  S
N29         Co43   2.162       .  S
N30          N42   1.322       .  A
N30          N46   1.312       .  A
N30         Co39   2.057       .  S
C31          N35   1.347       .  A
C31          C45   1.461       .  S
C31        C5192   1.471       .  S
C32          C51   1.438       .  S
C32          H36   1.080       .  S
N33          C44   1.359       .  A
N33         Co43   2.166       .  S
C37          N53   1.369       .  A
C37          C49   1.433       .  S
C37        C5122   1.484       .  S
Co39        Cl50   2.442       .  S
N40          C51   1.376       .  A
C41        C5167   1.471       .  S
Co43        Cl50   2.454       .  S
C51        C5223   1.505       .  S
C54          N72   1.341       .  A
C54          C91   1.462       .  S
C54        C5209   1.467       .  S
N55          N72   1.312       .  A
N55          N77   1.312       .  A
N55         Co92   2.048       .  S
C56          N81   1.364       .  A
C56          C94   1.492       .  S
C56         H101   1.081       .  S
H57          C98   1.081       .  S
C58          N82   1.330       .  A
C58          C62   1.437       .  S
C58          H87   1.082       .  S
Co59         N77   2.057       .  S
Co59         N67   2.040       .  S
Co59         N99   2.065       .  S
Co59         N75   2.027       .  S
Co59       Cl103   2.456       .  S
N60          C98   1.360       .  A
N60          N67   1.324       .  A
N60         Co61   2.173       .  S
Co61         N64   2.169       .  S
Co61         N81   2.169       .  S
Co61         N68   2.173       .  S
Co61       Cl103   2.442       .  S
C62         N100   1.367       .  A
C62        C5024   1.486       .  S
N63          N70   1.313       .  A
N63          N93   1.325       .  A
N63         Co96   2.071       .  S
N64          N82   1.325       .  A
N64         N100   1.338       .  A
N65          C94   1.330       .  A
N65          N75   1.314       .  A
H66          C91   1.081       .  S
N67          N88   1.317       .  A
N68          N86   1.323       .  A
N68          N73   1.342       .  A
C69          N73   1.373       .  A
C69          C97   1.432       .  S
C69        C5038   1.493       .  S
N70          C85   1.331       .  A
N70         Co92   2.058       .  S
C71          N99   1.341       .  A
C71          C74   1.461       .  S
C71         H105   1.082       .  S
C74          N95   1.345       .  A
C74        C5083   1.458       .  S
N75          N81   1.322       .  A
N76         C102   1.331       .  A
N76          N78   1.311       .  A
N76         Co92   2.044       .  S
N77          C91   1.344       .  A
N78         N106   1.324       .  A
N78         Co96   2.075       .  S
H79         C102   1.082       .  S
H80          C97   1.081       .  S
N82         Co96   2.040       .  S
N83          N95   1.314       .  A
N83          N99   1.311       .  A
N83         Co92   2.048       .  S
C84          N88   1.337       .  A
C84          C98   1.493       .  S
C84        C5108   1.502       .  S
C85         C104   1.457       .  S
C85          H89   1.080       .  S
N86          C97   1.321       .  A
N86         Co96   2.033       .  S
C90         N106   1.351       .  A
C90         C102   1.452       .  S
C90        C5052   1.459       .  S
Co92       Cl103   2.417       .  S
N93         C104   1.353       .  A
C94        C5094   1.488       .  S
Co96       Cl103   2.452       .  S
C104       C5066   1.476       .  S
C107        N125   1.347       .  A
C107        C144   1.453       .  S
C107       C4954   1.457       .  S
N108        N125   1.322       .  A
N108        N130   1.315       .  A
N108       Co145   2.065       .  S
C109        N134   1.361       .  A
C109        C147   1.496       .  S
C109        H154   1.080       .  S
H110        C151   1.081       .  S
C111        N135   1.326       .  A
C111        C115   1.437       .  S
C111        H140   1.081       .  S
Co112       N130   2.068       .  S
Co112       N120   2.040       .  S
Co112       N152   2.073       .  S
Co112       N128   2.030       .  S
Co112      Cl156   2.424       .  S
N113        C151   1.363       .  A
N113        N120   1.323       .  A
N113       Co114   2.171       .  S
Co114       N117   2.172       .  S
Co114       N134   2.161       .  S
Co114       N121   2.186       .  S
Co114      Cl156   2.481       .  S
C115        N153   1.373       .  A
C115       C4940   1.500       .  S
N116        N123   1.315       .  A
N116        N146   1.321       .  A
N116       Co149   2.057       .  S
N117        N135   1.321       .  A
N117        N153   1.341       .  A
N118        C147   1.333       .  A
N118        N128   1.311       .  A
H119        C144   1.079       .  S
N120        N141   1.315       .  A
N121        N139   1.321       .  A
N121        N126   1.343       .  A
C122        N126   1.375       .  A
C122        C150   1.428       .  S
C122       C5010   1.492       .  S
N123        C138   1.336       .  A
N123       Co145   2.063       .  S
C124        N152   1.341       .  A
C124        C127   1.469       .  S
C124        H158   1.079       .  S
C127        N148   1.349       .  A
C127       C4996   1.481       .  S
N128        N134   1.322       .  A
N129        C155   1.330       .  A
N129        N131   1.313       .  A
N129       Co145   2.056       .  S
N130        C144   1.337       .  A
N131        N159   1.322       .  A
N131       Co149   2.060       .  S
H132        C155   1.082       .  S
H133        C150   1.081       .  S
N135       Co149   2.035       .  S
N136        N148   1.317       .  A
N136        N152   1.312       .  A
N136       Co145   2.059       .  S
C137        N141   1.334       .  A
C137        C151   1.494       .  S
C137       C4968   1.504       .  S
C138        C157   1.456       .  S
C138        H142   1.081       .  S
N139        C150   1.326       .  A
N139       Co149   2.026       .  S
C143        N159   1.348       .  A
C143        C155   1.459       .  S
C143       C5080   1.457       .  S
Co145      Cl156   2.448       .  S
N146        C157   1.344       .  A
C147       C4982   1.500       .  S
Co149      Cl156   2.431       .  S
C157       C5153   1.461       .  S
C160        N178   1.348       .  A
C160        C197   1.463       .  S
C160       C5069   1.475   1_545  S
N161        N178   1.317       .  A
N161        N183   1.314       .  A
N161       Co198   2.063       .  S
C162        N187   1.368       .  A
C162        C200   1.502       .  S
C162        H207   1.081       .  S
H163        C204   1.081       .  S
C164        N188   1.327       .  A
C164        C168   1.443       .  S
C164        H193   1.081       .  S
Co165       N183   2.066       .  S
Co165       N173   2.042       .  S
Co165       N205   2.068       .  S
Co165       N181   2.023       .  S
Co165      Cl209   2.428       .  S
N166        C204   1.360       .  A
N166        N173   1.325       .  A
N166       Co167   2.166       .  S
Co167       N170   2.180       .  S
Co167       N187   2.181       .  S
Co167       N174   2.183       .  S
Co167      Cl209   2.479       .  S
C168        N206   1.375       .  A
C168       C4873   1.508       .  S
N169        N176   1.315       .  A
N169        N199   1.322       .  A
N169       Co202   2.065       .  S
N170        N188   1.321       .  A
N170        N206   1.341       .  A
N171        C200   1.328       .  A
N171        N181   1.310       .  A
H172        C197   1.081       .  S
N173        N194   1.318       .  A
N174        N192   1.321       .  A
N174        N179   1.343       .  A
C175        N179   1.375       .  A
C175        C203   1.427       .  S
C175       C4884   1.491       .  S
N176        C191   1.336       .  A
N176       Co198   2.065       .  S
C177        N205   1.339       .  A
C177        C180   1.457       .  S
C177        H211   1.081       .  S
C180        N201   1.348       .  A
C180       C4926   1.456       .  S
N181        N187   1.322       .  A
N182        C208   1.331       .  A
N182        N184   1.313       .  A
N182       Co198   2.058       .  S
N183        C197   1.341       .  A
N184        N212   1.323       .  A
N184       Co202   2.067       .  S
H185        C208   1.082       .  S
H186        C203   1.081       .  S
N188       Co202   2.037       .  S
N189        N201   1.319       .  A
N189        N205   1.312       .  A
N189       Co198   2.060       .  S
C190        N194   1.335       .  A
C190        C204   1.486       .  S
C190       C4856   1.490       .  S
C191        C210   1.458       .  S
C191        H195   1.081   1_545  S
N192        C203   1.324       .  A
N192       Co202   2.025       .  S
C196        N212   1.349       .  A
C196        C208   1.461       .  S
C196       C4898   1.460       .  S
Co198      Cl209   2.445       .  S
N199        C210   1.348       .  A
C200       C4912   1.506       .  S
Co202      Cl209   2.432       .  S
C210       C5195   1.472   1_545  S
C213        N231   1.349       .  A
C213        C250   1.458       .  S
C213       C4999   1.475       .  S
N214        N231   1.321       .  A
N214        N236   1.314       .  A
N214       Co251   2.068       .  S
C215        N240   1.366       .  A
C215        C253   1.499       .  S
C215        H260   1.081       .  S
H216        C257   1.081       .  S
C217        N241   1.330       .  A
C217        C221   1.433       .  S
C217        H246   1.081       .  S
Co218       N236   2.064       .  S
Co218       N226   2.045       .  S
Co218       N258   2.067       .  S
Co218       N234   2.027       .  S
Co218      Cl262   2.423       .  S
N219        C257   1.359       .  A
N219        N226   1.323       .  A
N219       Co220   2.159       .  S
Co220       N223   2.180       .  S
Co220       N240   2.176       .  S
Co220       N227   2.183       .  S
Co220      Cl262   2.481       .  S
C221        N259   1.371       .  A
C221       C4800   1.492       .  S
N222        N229   1.315       .  A
N222        N252   1.321       .  A
N222       Co255   2.058       .  S
N223        N241   1.322       .  A
N223        N259   1.341       .  A
N224        C253   1.329       .  A
N224        N234   1.312       .  A
H225        C250   1.081       .  S
N226        N247   1.317       .  A
N227        N245   1.320       .  A
N227        N232   1.345       .  A
C228        N232   1.378       .  A
C228        C256   1.431       .  S
C228       C4842   1.502       .  S
N229        C244   1.336       .  A
N229       Co251   2.067       .  S
C230        N258   1.338       .  A
C230        C233   1.454       .  S
C230        H264   1.077       .  S
C233        N254   1.349       .  A
C233       C4828   1.460       .  S
N234        N240   1.321       .  A
N235        C261   1.335       .  A
N235        N237   1.314       .  A
N235       Co251   2.062       .  S
N236        C250   1.338       .  A
N237        N265   1.322       .  A
N237       Co255   2.072       .  S
H238        C261   1.081       .  S
H239        C256   1.081       .  S
N241       Co255   2.032       .  S
N242        N254   1.320       .  A
N242        N258   1.314       .  A
N242       Co251   2.065       .  S
C243        N247   1.336       .  A
C243        C257   1.490       .  S
C243       C4786   1.496       .  S
C244        C263   1.457       .  S
C244        H248   1.081   1_554  S
N245        C256   1.318       .  A
N245       Co255   2.021       .  S
C249        N265   1.346       .  A
C249        C261   1.457       .  S
C249       C4929   1.454       .  S
Co251      Cl262   2.459       .  S
N252        C263   1.344       .  A
C253       C4817   1.506       .  S
Co255      Cl262   2.426       .  S
C263       C5055   1.457       .  S
C266        N284   1.351       .  A
C266        C303   1.460       .  S
C266       C5164   1.474       .  S
N267        N284   1.316       .  A
N267        N289   1.311       .  A
N267       Co304   2.064       .  S
C268        N293   1.365       .  A
C268        C306   1.503       .  S
C268        H313   1.080       .  S
H269        C310   1.081       .  S
C270        N294   1.330       .  A
C270        C274   1.437       .  S
C270        H299   1.082       .  S
Co271       N289   2.048       .  S
Co271       N279   2.037       .  S
Co271       N311   2.065       .  S
Co271       N287   2.017       .  S
Co271      Cl315   2.437       .  S
N272        C310   1.363       .  A
N272        N279   1.322       .  A
N272       Co273   2.175       .  S
Co273       N276   2.174       .  S
Co273       N293   2.175       .  S
Co273       N280   2.184       .  S
Co273      Cl315   2.460       .  S
C274        N312   1.369       .  A
C274       C4730   1.490       .  S
N275        N282   1.315       .  A
N275        N305   1.324       .  A
N275       Co308   2.071       .  S
N276        N294   1.324       .  A
N276        N312   1.339       .  A
N277        C306   1.330       .  A
N277        N287   1.310       .  A
H278        C303   1.077       .  S
N279        N300   1.315       .  A
N280        N298   1.322       .  A
N280        N285   1.343       .  A
C281        N285   1.376       .  A
C281        C309   1.430       .  S
C281       C4775   1.497       .  S
N282        C297   1.335       .  A
N282       Co304   2.059       .  S
C283        N311   1.342       .  A
C283        C286   1.459       .  S
C283        H317   1.081       .  S
C286        N307   1.346       .  A
C286       C4901   1.460       .  S
N287        N293   1.320       .  A
N288        C314   1.332       .  A
N288        N290   1.313       .  A
N288       Co304   2.055       .  S
N289        C303   1.338       .  A
N290        N318   1.324       .  A
N290       Co308   2.074       .  S
H291        C314   1.082       .  S
H292        C309   1.081       .  S
N294       Co308   2.041       .  S
N295        N307   1.316       .  A
N295        N311   1.312       .  A
N295       Co304   2.055       .  S
C296        N300   1.335       .  A
C296        C310   1.499       .  S
C296       C4744   1.509       .  S
C297        C316   1.452       .  S
C297        H301   1.082       .  S
N298        C309   1.322       .  A
N298       Co308   2.030       .  S
C302        N318   1.350       .  A
C302        C314   1.456       .  S
C302       C4831   1.459       .  S
Co304      Cl315   2.445       .  S
N305        C316   1.349       .  A
C306       C4758   1.507       .  S
Co308      Cl315   2.438       .  S
C316       C4957   1.458       .  S
C319        N337   1.336       .  A
C319        C356   1.488       .  S
C319       C4716   1.493       .  S
N320        N337   1.317       .  A
N320        N342   1.324       .  A
N320       Co357   2.045       .  S
C321        N346   1.324       .  A
C321        C359   1.435       .  S
C321        H366   1.082       .  S
H322        C363   1.081       .  S
C323        N347   1.331       .  A
C323        C327   1.452       .  S
C323        H352   1.082       .  S
Co324       N342   2.161       .  S
Co324       N332   2.170       .  S
Co324       N364   2.167       .  S
Co324       N340   2.160       .  S
Co324      Cl368   2.466       .  S
N325        C363   1.324       .  A
N325        N332   1.322       .  A
N325       Co326   2.036       .  S
Co326       N329   2.073       .  S
Co326       N346   2.032       .  S
Co326       N333   2.074       .  S
Co326      Cl368   2.439       .  S
C327        N365   1.350       .  A
C327       C4688   1.462       .  S
N328        N335   1.314       .  A
N328        N358   1.315       .  A
N328       Co361   2.053       .  S
N329        N347   1.313       .  A
N329        N365   1.324       .  A
N330        C359   1.370       .  A
N330        N340   1.338       .  A
H331        C356   1.081       .  S
N332        N353   1.341       .  A
N333        N351   1.312       .  A
N333        N338   1.324       .  A
C334        N338   1.353       .  A
C334        C362   1.454       .  S
C334       C4663   1.464       .  S
N335        C350   1.341       .  A
N335       Co357   2.059       .  S
C336        N364   1.361       .  A
C336        C339   1.488       .  S
C336        H370   1.081       .  S
C339        N360   1.333       .  A
C339       C4646   1.486       .  S
N340        N346   1.322       .  A
N341        C367   1.346       .  A
N341        N343   1.312       .  A
N341       Co357   2.079       .  S
N342        C356   1.360       .  A
N343        N371   1.310       .  A
N343       Co361   2.040       .  S
H344        C367   1.081       .  S
H345        C362   1.081       .  S
N347       Co361   2.047       .  S
N348        N360   1.317       .  A
N348        N364   1.324       .  A
N348       Co357   2.039       .  S
C349        N353   1.372       .  A
C349        C363   1.438       .  S
C349       C4674   1.497       .  S
C350        C369   1.457       .  S
C350        H354   1.082       .  S
N351        C362   1.332       .  A
N351       Co361   2.050       .  S
C355        N371   1.342       .  A
C355        C367   1.473       .  S
C355       C4632   1.473       .  S
Co357      Cl368   2.451       .  S
N358        C369   1.342       .  A
C359       C4618   1.490       .  S
Co361      Cl368   2.416       .  S
C369       C4702   1.455       .  S
C372        N390   1.346       .  A
C372        C409   1.464       .  S
C372       C4562   1.474       .  S
N373        N390   1.318       .  A
N373        N395   1.314       .  A
N373       Co410   2.058       .  S
C374        N399   1.358       .  A
C374        C412   1.488       .  S
C374        H419   1.082       .  S
H375        C416   1.081       .  S
C376        N400   1.328       .  A
C376        C380   1.433       .  S
C376        H405   1.082       .  S
Co377       N395   2.076       .  S
Co377       N385   2.048       .  S
Co377       N417   2.077       .  S
Co377       N393   2.042       .  S
Co377      Cl421   2.433       .  S
N378        C416   1.361       .  A
N378        N385   1.326       .  A
N378       Co379   2.173       .  S
Co379       N382   2.170       .  S
Co379       N399   2.156       .  S
Co379       N386   2.188       .  S
Co379      Cl421   2.465       .  S
C380        N418   1.369       .  A
C380       C4604   1.485       .  S
N381        N388   1.313       .  A
N381        N411   1.321       .  A
N381       Co414   2.051       .  S
N382        N400   1.322       .  A
N382        N418   1.339       .  A
N383        C412   1.333       .  A
N383        N393   1.316       .  A
H384        C409   1.081       .  S
N385        N406   1.319       .  A
N386        N404   1.319       .  A
N386        N391   1.346       .  A
C387        N391   1.380       .  A
C387        C415   1.432       .  S
C387       C4590   1.507       .  S
N388        C403   1.333       .  A
N388       Co410   2.060       .  S
C389        N417   1.340       .  A
C389        C392   1.464       .  S
C389        H423   1.082       .  S
C392        N413   1.347       .  A
C392       C4548   1.467       .  S
N393        N399   1.325       .  A
N394        C420   1.334       .  A
N394        N396   1.313       .  A
N394       Co410   2.057       .  S
N395        C409   1.342       .  A
N396        N424   1.322       .  A
N396       Co414   2.064       .  S
H397        C420   1.082       .  S
H398        C415   1.081       .  S
N400       Co414   2.031       .  S
N401        N413   1.319       .  A
N401        N417   1.314       .  A
N401       Co410   2.056       .  S
C402        N406   1.335       .  A
C402        C416   1.487       .  S
C402       C4520   1.490       .  S
C403        C422   1.457       .  S
C403        H407   1.081       .  S
N404        C415   1.319       .  A
N404       Co414   2.020       .  S
C408        N424   1.346       .  A
C408        C420   1.459       .  S
C408       C4576   1.455       .  S
Co410      Cl421   2.457       .  S
N411        C422   1.345       .  A
C412       C4537   1.487       .  S
Co414      Cl421   2.430       .  S
C422       C4705   1.454       .  S
C425        N443   1.345       .  A
C425        C462   1.459       .  S
C425       C4635   1.471       .  S
N426        N443   1.314       .  A
N426        N448   1.312       .  A
N426       Co463   2.056       .  S
C427        N452   1.364       .  A
C427        C465   1.493       .  S
C427        H472   1.081       .  S
H428        C469   1.081       .  S
C429        N453   1.328       .  A
C429        C433   1.439       .  S
C429        H458   1.082       .  S
Co430       N448   2.055       .  S
Co430       N438   2.032       .  S
Co430       N470   2.067       .  S
Co430       N446   2.021       .  S
Co430      Cl474   2.439       .  S
N431        C469   1.364       .  A
N431        N438   1.323       .  A
N431       Co432   2.176       .  S
Co432       N435   2.165       .  S
Co432       N452   2.174       .  S
Co432       N439   2.175       .  S
Co432      Cl474   2.473       .  S
C433        N471   1.370       .  A
C433       C4464   1.494       .  S
N434        N441   1.314       .  A
N434        N464   1.323       .  A
N434       Co467   2.068       .  S
N435        N453   1.323       .  A
N435        N471   1.338       .  A
N436        C465   1.328       .  A
N436        N446   1.313       .  A
H437        C462   1.081       .  S
N438        N459   1.315       .  A
N439        N457   1.321       .  A
N439        N444   1.342       .  A
C440        N444   1.375       .  A
C440        C468   1.434       .  S
C440       C4478   1.498       .  S
N441        C456   1.335       .  A
N441       Co463   2.064       .  S
C442        N470   1.341       .  A
C442        C445   1.462       .  S
C442        H476   1.082       .  S
C445        N466   1.347       .  A
C445       C4579   1.459       .  S
N446        N452   1.323       .  A
N447        C473   1.331       .  A
N447        N449   1.312       .  A
N447       Co463   2.052       .  S
N448        C462   1.341       .  A
N449        N477   1.323       .  A
N449       Co467   2.070       .  S
H450        C473   1.082       .  S
H451        C468   1.081       .  S
N453       Co467   2.041       .  S
N454        N466   1.315       .  A
N454        N470   1.312       .  A
N454       Co463   2.054       .  S
C455        N459   1.333       .  A
C455        C469   1.494       .  S
C455       C4436   1.497       .  S
C456        C475   1.458       .  S
C456        H460   1.080       .  S
N457        C468   1.322       .  A
N457       Co467   2.028       .  S
C461        N477   1.351       .  A
C461        C473   1.458       .  S
C461       C4492   1.460       .  S
Co463      Cl474   2.429       .  S
N464        C475   1.349       .  A
C465       C4506   1.485       .  S
Co467      Cl474   2.431       .  S
C475       C4453   1.469       .  S
C478        N496   1.347       .  A
C478        C515   1.457       .  S
C478       C4691   1.464   1_455  S
N479        N496   1.319       .  A
N479        N501   1.314       .  A
N479       Co516   2.065       .  S
C480        N505   1.363       .  A
C480        C518   1.493       .  S
C480        H525   1.081       .  S
H481        C522   1.081       .  S
C482        N506   1.324       .  A
C482        C486   1.436       .  S
C482        H511   1.081       .  S
Co483       N501   2.063       .  S
Co483       N491   2.038       .  S
Co483       N523   2.074       .  S
Co483       N499   2.029       .  S
Co483      Cl527   2.450       .  S
N484        C522   1.363       .  A
N484        N491   1.323       .  A
N484       Co485   2.173       .  S
Co485       N488   2.185       .  S
Co485       N505   2.175       .  S
Co485       N492   2.181       .  S
Co485      Cl527   2.462       .  S
C486        N524   1.375       .  A
C486       C4369   1.501       .  S
N487        N494   1.314       .  A
N487        N517   1.324       .  A
N487       Co520   2.071       .  S
N488        N506   1.322       .  A
N488        N524   1.342       .  A
N489        C518   1.331       .  A
N489        N499   1.314       .  A
H490        C515   1.080       .  S
N491        N512   1.315       .  A
N492        N510   1.321       .  A
N492        N497   1.342       .  A
C493        N497   1.375       .  A
C493        C521   1.429       .  S
C493       C4408   1.490       .  S
N494        C509   1.335       .  A
N494       Co516   2.060       .  S
C495        N523   1.348       .  A
C495        C498   1.469       .  S
C495        H529   1.082       .  S
C498        N519   1.340       .  A
C498       C4394   1.474       .  S
N499        N505   1.324       .  A
N500        C526   1.330       .  A
N500        N502   1.311       .  A
N500       Co516   2.053       .  S
N501        C515   1.339       .  A
N502        N530   1.324       .  A
N502       Co520   2.066       .  S
H503        C526   1.082       .  S
H504        C521   1.081       .  S
N506       Co520   2.027       .  S
N507        N519   1.309       .  A
N507        N523   1.311       .  A
N507       Co516   2.044       .  S
C508        N512   1.335       .  A
C508        C522   1.494       .  S
C508       C4352   1.506       .  S
C509        C528   1.459       .  S
C509        H513   1.081   1_455  S
N510        C521   1.325       .  A
N510       Co520   2.025       .  S
C514        N530   1.351       .  A
C514        C526   1.458       .  S
C514       C4422   1.458       .  S
Co516      Cl527   2.419       .  S
N517        C528   1.350       .  A
C518       C4380   1.490       .  S
Co520      Cl527   2.445       .  S
C528       C4565   1.477   1_455  S
C531        N549   1.352       .  A
C531        C568   1.449       .  S
C531       C4551   1.467       .  S
N532        N549   1.325       .  A
N532        N554   1.314       .  A
N532       Co569   2.083       .  S
C533        N558   1.368       .  A
C533        C571   1.502       .  S
C533        H578   1.081       .  S
H534        C575   1.081       .  S
C535        N559   1.328       .  A
C535        C539   1.434       .  S
C535        H564   1.081       .  S
Co536       N554   2.049       .  S
Co536       N544   2.045       .  S
Co536       N576   2.067       .  S
Co536       N552   2.015       .  S
Co536      Cl580   2.420       .  S
N537        C575   1.361       .  A
N537        N544   1.322       .  A
N537       Co538   2.163       .  S
Co538       N541   2.180       .  S
Co538       N558   2.181       .  S
Co538       N545   2.175       .  S
Co538      Cl580   2.483       .  S
C539        N577   1.372       .  A
C539       C4296   1.494       .  S
N540        N547   1.316       .  A
N540        N570   1.323       .  A
N540       Co573   2.070       .  S
N541        N559   1.322       .  A
N541        N577   1.342       .  A
N542        C571   1.327       .  A
N542        N552   1.310       .  A
H543        C568   1.079       .  S
N544        N565   1.316       .  A
N545        N563   1.322       .  A
N545        N550   1.343       .  A
C546        N550   1.374       .  A
C546        C574   1.432       .  S
C546       C4313   1.494       .  S
N547        C562   1.333       .  A
N547       Co569   2.057       .  S
C548        N576   1.341       .  A
C548        C551   1.457       .  S
C548        H582   1.081       .  S
C551        N572   1.347       .  A
C551       C4425   1.459       .  S
N552        N558   1.320       .  A
N553        C579   1.340       .  A
N553        N555   1.315       .  A
N553       Co569   2.075       .  S
N554        C568   1.333       .  A
N555        N583   1.322       .  A
N555       Co573   2.070       .  S
H556        C579   1.081       .  S
H557        C574   1.081       .  S
N559       Co573   2.035       .  S
N560        N572   1.317       .  A
N560        N576   1.314       .  A
N560       Co569   2.057       .  S
C561        N565   1.337       .  A
C561        C575   1.495       .  S
C561       C4282   1.507       .  S
C562        C581   1.454       .  S
C562        H566   1.081   1_554  S
N563        C574   1.323       .  A
N563       Co573   2.034       .  S
C567        N583   1.347       .  A
C567        C579   1.461       .  S
C567       C4327   1.472       .  S
Co569      Cl580   2.455       .  S
N570        C581   1.347       .  A
C571       C4338   1.507       .  S
Co573      Cl580   2.429       .  S
C581       C4495   1.461       .  S
C584        N602   1.346       .  A
C584        C621   1.464       .  S
C584       C4450   1.470       .  S
N585        N602   1.317       .  A
N585        N607   1.315       .  A
N585       Co622   2.056       .  S
C586        N611   1.361       .  A
C586        C624   1.492       .  S
C586        H631   1.081       .  S
H587        C628   1.081       .  S
C588        N612   1.332       .  A
C588        C592   1.437       .  S
C588        H617   1.081       .  S
Co589       N607   2.078       .  S
Co589       N597   2.034       .  S
Co589       N629   2.068       .  S
Co589       N605   2.042       .  S
Co589      Cl633   2.442       .  S
N590        C628   1.361       .  A
N590        N597   1.324       .  A
N590       Co591   2.170       .  S
Co591       N594   2.173       .  S
Co591       N611   2.166       .  S
Co591       N598   2.181       .  S
Co591      Cl633   2.466       .  S
C592        N630   1.369       .  A
C592       C4240   1.491       .  S
N593        N600   1.316       .  A
N593        N623   1.320       .  A
N593       Co626   2.052       .  S
N594        N612   1.324       .  A
N594        N630   1.340       .  A
N595        C624   1.333       .  A
N595        N605   1.317       .  A
H596        C621   1.080       .  S
N597        N618   1.316       .  A
N598        N616   1.321       .  A
N598        N603   1.343       .  A
C599        N603   1.375       .  A
C599        C627   1.428       .  S
C599       C4254   1.490       .  S
N600        C615   1.340       .  A
N600       Co622   2.079       .  S
C601        N629   1.340       .  A
C601        C604   1.461       .  S
C601        H635   1.080       .  S
C604        N625   1.349       .  A
C604       C4324   1.472       .  S
N605        N611   1.324       .  A
N606        C632   1.325       .  A
N606        N608   1.313       .  A
N606       Co622   2.054       .  S
N607        C621   1.343       .  A
N608        N636   1.326       .  A
N608       Co626   2.072       .  S
H609        C632   1.081       .  S
H610        C627   1.082       .  S
N612       Co626   2.048       .  S
N613        N625   1.321       .  A
N613        N629   1.313       .  A
N613       Co622   2.072       .  S
C614        N618   1.333       .  A
C614        C628   1.487       .  S
C614       C4226   1.488       .  S
C615        C634   1.456       .  S
C615        H619   1.081       .  S
N616        C627   1.324       .  A
N616       Co626   2.022       .  S
C620        N636   1.353       .  A
C620        C632   1.460       .  S
C620       C4397   1.473       .  S
Co622      Cl633   2.433       .  S
N623        C634   1.343       .  A
C624       C4268   1.492       .  S
Co626      Cl633   2.450       .  S
C634       C4660   1.459       .  S
C637        N655   1.351       .  A
C637        C674   1.452       .  S
C637       C4198   1.459       .  S
N638        N655   1.324       .  A
N638        N660   1.311       .  A
N638       Co675   2.070       .  S
C639        N664   1.344       .  A
C639        C677   1.470       .  S
C639        H684   1.081       .  S
H640        C681   1.081       .  S
C641        N665   1.361       .  A
C641        C645   1.490       .  S
C641        H670   1.081       .  S
Co642       N660   2.035       .  S
Co642       N650   2.057       .  S
Co642       N682   2.054       .  S
Co642       N658   2.034       .  S
Co642      Cl686   2.444       .  S
N643        C681   1.337       .  A
N643        N650   1.311       .  A
N643       Co644   2.052       .  S
Co644       N647   2.036       .  S
Co644       N664   2.075       .  S
Co644       N651   2.024       .  S
Co644      Cl686   2.424       .  S
C645        N683   1.332       .  A
C645       C4114   1.488       .  S
N646        N653   1.322       .  A
N646        N676   1.342       .  A
N646       Co679   2.182       .  S
N647        N665   1.324       .  A
N647        N683   1.313       .  A
N648        C677   1.340       .  A
N648        N658   1.312       .  A
H649        C674   1.082       .  S
N650        N671   1.319       .  A
N651        N669   1.323       .  A
N651        N656   1.311       .  A
C652        N656   1.331       .  A
C652        C680   1.499       .  S
C652       C4128   1.500       .  S
N653        C668   1.321       .  A
N653       Co675   2.022       .  S
C654        N682   1.332       .  A
C654        C657   1.454       .  S
C654        H688   1.082       .  S
C657        N678   1.349       .  A
C657       C4170   1.464       .  S
N658        N664   1.310       .  A
N659        C685   1.325       .  A
N659        N661   1.323       .  A
N659       Co675   2.030       .  S
N660        C674   1.326       .  A
N661        N689   1.340       .  A
N661       Co679   2.172       .  S
H662        C685   1.082       .  S
H663        C680   1.081       .  S
N665       Co679   2.160       .  S
N666        N678   1.322       .  A
N666        N682   1.312       .  A
N666       Co675   2.059       .  S
C667        N671   1.347       .  A
C667        C681   1.459       .  S
C667       C4142   1.467       .  S
C668        C687   1.433       .  S
C668        H672   1.082       .  S
N669        C680   1.363       .  A
N669       Co679   2.173       .  S
C673        N689   1.371       .  A
C673        C685   1.429       .  S
C673       C4187   1.482       .  S
Co675      Cl686   2.430       .  S
N676        C687   1.376       .  A
C677       C4156   1.474       .  S
Co679      Cl686   2.466       .  S
C687       C4212   1.500       .  S
C690        N708   1.341       .  A
C690        C727   1.463       .  S
C690       C4086   1.466       .  S
N691        N708   1.316       .  A
N691        N713   1.315       .  A
N691       Co728   2.050       .  S
C692        N717   1.361       .  A
C692        C730   1.487       .  S
C692        H737   1.081       .  S
H693        C734   1.080       .  S
C694        N718   1.322       .  A
C694        C698   1.432       .  S
C694        H723   1.081       .  S
Co695       N713   2.076       .  S
Co695       N703   2.050       .  S
Co695       N735   2.079       .  S
Co695       N711   2.042       .  S
Co695      Cl739   2.428       .  S
N696        C734   1.359       .  A
N696        N703   1.324       .  A
N696       Co697   2.166       .  S
Co697       N700   2.184       .  S
Co697       N717   2.162       .  S
Co697       N704   2.187       .  S
Co697      Cl739   2.467       .  S
C698        N736   1.375       .  A
C698       C4103   1.498       .  S
N699        N706   1.313       .  A
N699        N729   1.320       .  A
N699       Co732   2.049       .  S
N700        N718   1.320       .  A
N700        N736   1.343       .  A
N701        C730   1.332       .  A
N701        N711   1.315       .  A
H702        C727   1.082       .  S
N703        N724   1.317       .  A
N704        N722   1.318       .  A
N704        N709   1.346       .  A
C705        N709   1.379       .  A
C705        C733   1.426       .  S
C705       C4016   1.500       .  S
N706        C721   1.337       .  A
N706       Co728   2.061       .  S
C707        N735   1.342       .  A
C707        C710   1.469       .  S
C707        H741   1.081       .  S
C710        N731   1.345       .  A
C710       C4044   1.478       .  S
N711        N717   1.325       .  A
N712        C738   1.335       .  A
N712        N714   1.311       .  A
N712       Co728   2.056       .  S
N713        C727   1.343       .  A
N714        N742   1.319       .  A
N714       Co732   2.054       .  S
H715        C738   1.081       .  S
H716        C733   1.081       .  S
N718       Co732   2.021       .  S
N719        N731   1.316       .  A
N719        N735   1.313       .  A
N719       Co728   2.051       .  S
C720        N724   1.339       .  A
C720        C734   1.494       .  S
C720       C4072   1.506       .  S
C721        C740   1.456       .  S
C721        H725   1.081       .  S
N722        C733   1.317       .  A
N722       Co732   2.009       .  S
C726        N742   1.344       .  A
C726        C738   1.457       .  S
C726       C4030   1.446       .  S
Co728      Cl739   2.456       .  S
N729        C740   1.343       .  A
C730       C4058   1.484       .  S
Co732      Cl739   2.428       .  S
C740       C4173   1.458       .  S
C743        N761   1.344       .  A
C743        C780   1.455       .  S
C743       C4201   1.460       .  S
N744        N761   1.315       .  A
N744        N766   1.311       .  A
N744       Co781   2.051       .  S
C745        N770   1.372       .  A
C745        C783   1.507       .  S
C745        H790   1.081       .  S
H746        C787   1.081       .  S
C747        N771   1.326       .  A
C747        C751   1.443       .  S
C747        H776   1.080       .  S
Co748       N766   2.046       .  S
Co748       N756   2.036       .  S
Co748       N788   2.064       .  S
Co748       N764   2.014       .  S
Co748      Cl792   2.414       .  S
N749        C787   1.361       .  A
N749        N756   1.323       .  A
N749       Co750   2.169       .  S
Co750       N753   2.162       .  S
Co750       N770   2.191       .  S
Co750       N757   2.183       .  S
Co750      Cl792   2.484       .  S
C751        N789   1.372       .  A
C751       C3974   1.503       .  S
N752        N759   1.312       .  A
N752        N782   1.324       .  A
N752       Co785   2.066       .  S
N753        N771   1.322       .  A
N753        N789   1.339       .  A
N754        C783   1.324       .  A
N754        N764   1.308       .  A
H755        C780   1.081       .  S
N756        N777   1.316       .  A
N757        N775   1.323       .  A
N757        N762   1.343       .  A
C758        N762   1.376       .  A
C758        C786   1.434       .  S
C758       C3946   1.501       .  S
N759        C774   1.329       .  A
N759       Co781   2.048       .  S
C760        N788   1.337       .  A
C760        C763   1.454       .  S
C760        H794   1.079       .  S
C763        N784   1.346       .  A
C763       C4033   1.447       .  S
N764        N770   1.322       .  A
N765        C791   1.332       .  A
N765        N767   1.311       .  A
N765       Co781   2.050       .  S
N766        C780   1.339       .  A
N767        N795   1.324       .  A
N767       Co785   2.072       .  S
H768        C791   1.082       .  S
H769        C786   1.079       .  S
N771       Co785   2.047       .  S
N772        N784   1.318       .  A
N772        N788   1.312       .  A
N772       Co781   2.046       .  S
C773        N777   1.334       .  A
C773        C787   1.492       .  S
C773       C4002   1.496       .  S
C774        C793   1.456       .  S
C774        H778   1.081       .  S
N775        C786   1.320       .  A
N775       Co785   2.030       .  S
C779        N795   1.352       .  A
C779        C791   1.457       .  S
C779       C3932   1.462       .  S
Co781      Cl792   2.456       .  S
N782        C793   1.350       .  A
C783       C3960   1.510       .  S
Co785      Cl792   2.412       .  S
C793       C3988   1.467       .  S
C796        N814   1.349       .  A
C796        C833   1.462       .  S
C796       C4159   1.476   1_455  S
N797        N814   1.316       .  A
N797        N819   1.312       .  A
N797       Co834   2.062       .  S
C798        N823   1.363       .  A
C798        C836   1.494       .  S
C798        H843   1.081       .  S
H799        C840   1.081       .  S
C800        N824   1.324       .  A
C800        C804   1.448       .  S
C800        H829   1.078       .  S
Co801       N819   2.055       .  S
Co801       N809   2.046       .  S
Co801       N841   2.083       .  S
Co801       N817   2.029       .  S
Co801      Cl845   2.438       .  S
N802        C840   1.362       .  A
N802        N809   1.325       .  A
N802       Co803   2.171       .  S
Co803       N806   2.184       .  S
Co803       N823   2.174       .  S
Co803       N810   2.172       .  S
Co803      Cl845   2.467       .  S
C804        N842   1.378       .  A
C804       C3865   1.518       .  S
N805        N812   1.315       .  A
N805        N835   1.325       .  A
N805       Co838   2.074       .  S
N806        N824   1.320       .  A
N806        N842   1.343       .  A
N807        C836   1.330       .  A
N807        N817   1.314       .  A
H808        C833   1.079       .  S
N809        N830   1.317       .  A
N810        N828   1.322       .  A
N810        N815   1.341       .  A
C811        N815   1.373       .  A
C811        C839   1.431       .  S
C811       C3907   1.490       .  S
N812        C827   1.333       .  A
N812       Co834   2.060       .  S
C813        N841   1.344       .  A
C813        C816   1.467       .  S
C813        H847   1.080       .  S
C816        N837   1.347       .  A
C816       C3890   1.475       .  S
N817        N823   1.323       .  A
N818        C844   1.336       .  A
N818        N820   1.313       .  A
N818       Co834   2.063       .  S
N819        C833   1.339       .  A
N820        N848   1.322       .  A
N820       Co838   2.068       .  S
H821        C844   1.082   1_655  S
H822        C839   1.081       .  S
N824       Co838   2.036       .  S
N825        N837   1.318       .  A
N825        N841   1.314       .  A
N825       Co834   2.057       .  S
C826        N830   1.335       .  A
C826        C840   1.490       .  S
C826       C3848   1.496       .  S
C827        C846   1.455       .  S
C827        H831   1.082   1_455  S
N828        C839   1.324       .  A
N828       Co838   2.031       .  S
C832        N848   1.347       .  A
C832        C844   1.460       .  S
C832       C3918   1.460       .  S
Co834      Cl845   2.455       .  S
N835        C846   1.351       .  A
C836       C3876   1.492       .  S
Co838      Cl845   2.431       .  S
C846       C4089   1.469   1_455  S
C849        N867   1.341       .  A
C849        C886   1.464       .  S
C849       C3991   1.470   1_545  S
N850        N867   1.312       .  A
N850        N872   1.314       .  A
N850       Co887   2.049       .  S
C851        N876   1.363       .  A
C851        C889   1.495       .  S
C851        H896   1.081       .  S
H852        C893   1.081       .  S
C853        N877   1.328       .  A
C853        C857   1.440       .  S
C853        H882   1.082       .  S
Co854       N872   2.068       .  S
Co854       N862   2.044       .  S
Co854       N894   2.072       .  S
Co854       N870   2.026       .  S
Co854      Cl898   2.435       .  S
N855        C893   1.361       .  A
N855        N862   1.326       .  A
N855       Co856   2.175       .  S
Co856       N859   2.173       .  S
Co856       N876   2.166       .  S
Co856       N863   2.193       .  S
Co856      Cl898   2.476       .  S
C857        N895   1.372       .  A
C857       C3778   1.502       .  S
N858        N865   1.313       .  A
N858        N888   1.319       .  A
N858       Co891   2.053       .  S
N859        N877   1.321       .  A
N859        N895   1.341       .  A
N860        C889   1.330       .  A
N860        N870   1.312       .  A
H861        C886   1.081       .  S
N862        N883   1.318       .  A
N863        N881   1.318       .  A
N863        N868   1.347       .  A
C864        N868   1.382       .  A
C864        C892   1.431       .  S
C864       C3806   1.510       .  S
N865        C880   1.337       .  A
N865       Co887   2.064       .  S
C866        N894   1.339       .  A
C866        C869   1.458       .  S
C866        H900   1.081       .  S
C869        N890   1.349       .  A
C869       C3837   1.468       .  S
N870        N876   1.322       .  A
N871        C897   1.337       .  A
N871        N873   1.313       .  A
N871       Co887   2.061       .  S
N872        C886   1.344       .  A
N873        N901   1.323       .  A
N873       Co891   2.077       .  S
H874        C897   1.080       .  S
H875        C892   1.080       .  S
N877       Co891   2.036       .  S
N878        N890   1.321       .  A
N878        N894   1.316       .  A
N878       Co887   2.071       .  S
C879        N883   1.336       .  A
C879        C893   1.489       .  S
C879       C3792   1.494       .  S
C880        C899   1.459       .  S
C880        H884   1.081   1_545  S
N881        C892   1.316       .  A
N881       Co891   2.012       .  S
C885        N901   1.349       .  A
C885        C897   1.463       .  S
C885       C3893   1.477       .  S
Co887      Cl898   2.448       .  S
N888        C899   1.346       .  A
C889       C3820   1.493       .  S
Co891      Cl898   2.425       .  S
C899       C4145   1.465   1_545  S
C902        N920   1.353       .  A
C902        C939   1.460       .  S
C902       C4047   1.480       .  S
N903        N920   1.321       .  A
N903        N925   1.313       .  A
N903       Co940   2.076       .  S
C904        N929   1.365       .  A
C904        C942   1.494       .  S
C904        H949   1.081       .  S
H905        C946   1.081       .  S
C906        N930   1.328       .  A
C906        C910   1.432       .  S
C906        H935   1.081       .  S
Co907       N925   2.057       .  S
Co907       N915   2.048       .  S
Co907       N947   2.074       .  S
Co907       N923   2.030       .  S
Co907      Cl951   2.434       .  S
N908        C946   1.363       .  A
N908        N915   1.324       .  A
N908       Co909   2.172       .  S
Co909       N912   2.191       .  S
Co909       N929   2.181       .  S
Co909       N916   2.171       .  S
Co909      Cl951   2.480       .  S
C910        N948   1.375       .  A
C910       C3736   1.499       .  S
N911        N918   1.315       .  A
N911        N941   1.322       .  A
N911       Co944   2.065       .  S
N912        N930   1.323       .  A
N912        N948   1.344       .  A
N913        C942   1.330       .  A
N913        N923   1.315       .  A
H914        C939   1.078       .  S
N915        N936   1.318       .  A
N916        N934   1.322       .  A
N916        N921   1.340       .  A
C917        N921   1.371       .  A
C917        C945   1.431       .  S
C917       C3764   1.487       .  S
N918        C933   1.336       .  A
N918       Co940   2.062       .  S
C919        N947   1.342       .  A
C919        C922   1.460       .  S
C919        H953   1.081       .  S
C922        N943   1.347       .  A
C922       C3921   1.459       .  S
N923        N929   1.324       .  A
N924        C950   1.337       .  A
N924        N926   1.316       .  A
N924       Co940   2.070       .  S
N925        C939   1.337       .  A
N926        N954   1.323       .  A
N926       Co944   2.070       .  S
H927        C950   1.082       .  S
H928        C945   1.082       .  S
N930       Co944   2.035       .  S
N931        N943   1.318       .  A
N931        N947   1.314       .  A
N931       Co940   2.061       .  S
C932        N936   1.334       .  A
C932        C946   1.491       .  S
C932       C3722   1.496       .  S
C933        C952   1.455       .  S
C933        H937   1.081       .  S
N934        C945   1.327       .  A
N934       Co944   2.035       .  S
C938        N954   1.348       .  A
C938        C950   1.458       .  S
C938       C3834   1.470       .  S
Co940      Cl951   2.453       .  S
N941        C952   1.345       .  A
C942       C3750   1.492       .  S
Co944      Cl951   2.431       .  S
C952       C3935   1.459       .  S
C955        N973   1.345       .  A
C955        C992   1.458       .  S
C955       C3708   1.467       .  S
N956        N973   1.322       .  A
N956        N978   1.315       .  A
N956       Co993   2.066       .  S
C957        N982   1.338       .  A
C957        C995   1.457       .  S
C957       H1002   1.077       .  S
H958        C999   1.081       .  S
C959        N983   1.360       .  A
C959        C963   1.491       .  S
C959        H988   1.081       .  S
Co960       N978   2.065       .  S
Co960       N968   2.071       .  S
Co960      N1000   2.064       .  S
Co960       N976   2.059       .  S
Co960     Cl1004   2.459       .  S
N961        C999   1.335       .  A
N961        N968   1.315       .  A
N961       Co962   2.061       .  S
Co962       N965   2.039       .  S
Co962       N982   2.069       .  S
Co962       N969   2.030       .  S
Co962     Cl1004   2.422       .  S
C963       N1001   1.334       .  A
C963       C3809   1.494       .  S
N964        N971   1.321       .  A
N964        N994   1.344       .  A
N964       Co997   2.188       .  S
N965        N983   1.324       .  A
N965       N1001   1.317       .  A
N966        C995   1.348       .  A
N966        N976   1.320       .  A
H967        C992   1.081       .  S
N968        N989   1.323       .  A
N969        N987   1.322       .  A
N969        N974   1.313       .  A
C970        N974   1.331       .  A
C970        C998   1.499       .  S
C970       C3638   1.507       .  S
N971        C986   1.321       .  A
N971       Co993   2.024       .  S
C972       N1000   1.334       .  A
C972        C975   1.456       .  S
C972       H1006   1.082       .  S
C975        N996   1.346       .  A
C975       C3680   1.456       .  S
N976        N982   1.314       .  A
N977       C1003   1.327       .  A
N977        N979   1.322       .  A
N977       Co993   2.033       .  S
N978        C992   1.337       .  A
N979       N1007   1.340       .  A
N979       Co997   2.170       .  S
H980       C1003   1.082       .  S
H981        C998   1.081       .  S
N983       Co997   2.167       .  S
N984        N996   1.321       .  A
N984       N1000   1.314       .  A
N984       Co993   2.057       .  S
C985        N989   1.349       .  A
C985        C999   1.454       .  S
C985       C3694   1.464       .  S
C986       C1005   1.433       .  S
C986        H990   1.081       .  S
N987        C998   1.366       .  A
N987       Co997   2.179       .  S
C991       N1007   1.371       .  A
C991       C1003   1.431       .  S
C991       C3655   1.486       .  S
Co993     Cl1004   2.425       .  S
N994       C1005   1.378       .  A
C995       C3666   1.468       .  S
Co997     Cl1004   2.485       .  S
C1005      C3879   1.504       .  S
C1008      N1026   1.348       .  A
C1008      C1045   1.456       .  S
C1008      C3627   1.470       .  S
N1009      N1026   1.323       .  A
N1009      N1031   1.315       .  A
N1009     Co1046   2.068       .  S
C1010      N1035   1.342       .  A
C1010      C1048   1.459       .  S
C1010      H1055   1.081       .  S
H1011      C1052   1.081       .  S
C1012      N1036   1.363       .  A
C1012      C1016   1.493       .  S
C1012      H1041   1.082       .  S
Co1013     N1031   2.064       .  S
Co1013     N1021   2.062       .  S
Co1013     N1053   2.057       .  S
Co1013     N1029   2.056       .  S
Co1013    Cl1057   2.440       .  S
N1014      C1052   1.339       .  A
N1014      N1021   1.315       .  A
N1014     Co1015   2.069       .  S
Co1015     N1018   2.040       .  S
Co1015     N1035   2.073       .  S
Co1015     N1022   2.043       .  S
Co1015    Cl1057   2.438       .  S
C1016      N1054   1.335       .  A
C1016      C3795   1.499       .  S
N1017      N1024   1.322       .  A
N1017      N1047   1.338       .  A
N1017     Co1050   2.161       .  S
N1018      N1036   1.322       .  A
N1018      N1054   1.316       .  A
N1019      C1048   1.345       .  A
N1019      N1029   1.318       .  A
H1020      C1045   1.081       .  S
N1021      N1042   1.320       .  A
N1022      N1040   1.324       .  A
N1022      N1027   1.318       .  A
C1023      N1027   1.335       .  A
C1023      C1051   1.486       .  S
C1023      C3554   1.487       .  S
N1024      C1039   1.328       .  A
N1024     Co1046   2.039       .  S
C1025      N1053   1.329       .  A
C1025      C1028   1.457       .  S
C1025      H1059   1.082       .  S
C1028      N1049   1.351       .  A
C1028      C3613   1.468       .  S
N1029      N1035   1.315       .  A
N1030      C1056   1.326       .  A
N1030      N1032   1.322       .  A
N1030     Co1046   2.033       .  S
N1031      C1045   1.335       .  A
N1032      N1060   1.339       .  A
N1032     Co1050   2.166       .  S
H1033      C1056   1.082       .  S
H1034      C1051   1.081       .  S
N1036     Co1050   2.168       .  S
N1037      N1049   1.326       .  A
N1037      N1053   1.314       .  A
N1037     Co1046   2.072       .  S
C1038      N1042   1.347       .  A
C1038      C1052   1.455       .  S
C1038      C3596   1.455       .  S
C1039      C1058   1.439       .  S
C1039      H1043   1.082       .  S
N1040      C1051   1.360       .  A
N1040     Co1050   2.164       .  S
C1044      N1060   1.369       .  A
C1044      C1056   1.432       .  S
C1044      C3568   1.482       .  S
Co1046    Cl1057   2.441       .  S
N1047      C1058   1.369       .  A
C1048      C3582   1.458       .  S
Co1050    Cl1057   2.469       .  S
C1058      C3977   1.492       .  S
C1061      N1079   1.332       .  A
C1061      C1098   1.486       .  S
C1061      C5041   1.483       .  S
N1062      N1079   1.316       .  A
N1062      N1084   1.324       .  A
N1062     Co1099   2.034       .  S
C1063      N1088   1.327       .  A
C1063      C1101   1.433       .  S
C1063      H1108   1.082       .  S
H1064      C1105   1.081       .  S
C1065      N1089   1.329       .  A
C1065      C1069   1.456       .  S
C1065      H1094   1.081       .  S
Co1066     N1084   2.163       .  S
Co1066     N1074   2.178       .  S
Co1066     N1106   2.175       .  S
Co1066     N1082   2.172       .  S
Co1066    Cl1110   2.464       .  S
N1067      C1105   1.329       .  A
N1067      N1074   1.323       .  A
N1067     Co1068   2.042       .  S
Co1068     N1071   2.064       .  S
Co1068     N1088   2.038       .  S
Co1068     N1075   2.072       .  S
Co1068    Cl1110   2.436       .  S
C1069      N1107   1.349       .  A
C1069      C3529   1.464       .  S
N1070      N1077   1.313       .  A
N1070      N1100   1.318       .  A
N1070     Co1103   2.060       .  S
N1071      N1089   1.313       .  A
N1071      N1107   1.324       .  A
N1072      C1101   1.371       .  A
N1072      N1082   1.340       .  A
H1073      C1098   1.081       .  S
N1074      N1095   1.341       .  A
N1075      N1093   1.315       .  A
N1075      N1080   1.323       .  A
C1076      N1080   1.350       .  A
C1076      C1104   1.457       .  S
C1076      C3501   1.463       .  S
N1077      C1092   1.340       .  A
N1077     Co1099   2.060       .  S
C1078      N1106   1.365       .  A
C1078      C1081   1.500       .  S
C1078      H1112   1.081       .  S
C1081      N1102   1.329       .  A
C1081      C4131   1.501       .  S
N1082      N1088   1.323       .  A
N1083      C1109   1.339       .  A
N1083      N1085   1.313       .  A
N1083     Co1099   2.067       .  S
N1084      C1098   1.359       .  A
N1085      N1113   1.319       .  A
N1085     Co1103   2.059       .  S
H1086      C1109   1.082       .  S
H1087      C1104   1.081       .  S
N1089     Co1103   2.052       .  S
N1090      N1102   1.309       .  A
N1090      N1106   1.322       .  A
N1090     Co1099   2.018       .  S
C1091      N1095   1.372       .  A
C1091      C1105   1.436       .  S
C1091      C4803   1.496       .  S
C1092      C1111   1.457       .  S
C1092      H1096   1.081       .  S
N1093      C1104   1.335       .  A
N1093     Co1103   2.063       .  S
C1097      N1113   1.348       .  A
C1097      C1109   1.456       .  S
C1097      C3543   1.456       .  S
Co1099    Cl1110   2.430       .  S
N1100      C1111   1.346       .  A
C1101      C3851   1.490       .  S
Co1103    Cl1110   2.453       .  S
C1111      C3515   1.458       .  S
C1114      N1132   1.335       .  A
C1114      C1151   1.493       .  S
C1114      C4075   1.500       .  S
N1115      N1132   1.315       .  A
N1115      N1137   1.323       .  A
N1115     Co1152   2.037       .  S
C1116      N1141   1.326       .  A
C1116      C1154   1.432       .  S
C1116      H1161   1.082       .  S
H1117      C1158   1.081       .  S
C1118      N1142   1.338       .  A
C1118      C1122   1.455       .  S
C1118      H1147   1.081       .  S
Co1119     N1137   2.167       .  S
Co1119     N1127   2.168       .  S
Co1119     N1159   2.164       .  S
Co1119     N1135   2.159       .  S
Co1119    Cl1163   2.472       .  S
N1120      C1158   1.330       .  A
N1120      N1127   1.321       .  A
N1120     Co1121   2.039       .  S
Co1121     N1124   2.065       .  S
Co1121     N1141   2.033       .  S
Co1121     N1128   2.060       .  S
Co1121    Cl1163   2.430       .  S
C1122      N1160   1.346       .  A
C1122      C3498   1.461       .  S
N1123      N1130   1.314       .  A
N1123      N1153   1.320       .  A
N1123     Co1156   2.066       .  S
N1124      N1142   1.316       .  A
N1124      N1160   1.322       .  A
N1125      C1154   1.369       .  A
N1125      N1135   1.338       .  A
H1126      C1151   1.081       .  S
N1127      N1148   1.338       .  A
N1128      N1146   1.314       .  A
N1128      N1133   1.322       .  A
C1129      N1133   1.347       .  A
C1129      C1157   1.460       .  S
C1129      C3456   1.459       .  S
N1130      C1145   1.337       .  A
N1130     Co1152   2.058       .  S
C1131      N1159   1.360       .  A
C1131      C1134   1.489       .  S
C1131      H1165   1.081       .  S
C1134      N1155   1.331       .  A
C1134      C3428   1.485       .  S
N1135      N1141   1.322       .  A
N1136      C1162   1.341       .  A
N1136      N1138   1.315       .  A
N1136     Co1152   2.075       .  S
N1137      C1151   1.362       .  A
N1138      N1166   1.320       .  A
N1138     Co1156   2.065       .  S
H1139      C1162   1.081       .  S
H1140      C1157   1.082       .  S
N1142     Co1156   2.069       .  S
N1143      N1155   1.315       .  A
N1143      N1159   1.323       .  A
N1143     Co1152   2.029       .  S
C1144      N1148   1.372       .  A
C1144      C1158   1.441       .  S
C1144      C3862   1.497       .  S
C1145      C1164   1.454       .  S
C1145      H1149   1.081       .  S
N1146      C1157   1.333       .  A
N1146     Co1156   2.062       .  S
C1150      N1166   1.346       .  A
C1150      C1162   1.458       .  S
C1150      C3470   1.459       .  S
Co1152    Cl1163   2.434       .  S
N1153      C1164   1.349       .  A
C1154      C3442   1.483       .  S
Co1156    Cl1163   2.449       .  S
C1164      C3487   1.460       .  S
C1167      N1185   1.346       .  A
C1167      C1204   1.453       .  S
C1167      C3403   1.456       .  S
N1168      N1185   1.323       .  A
N1168      N1190   1.314       .  A
N1168     Co1205   2.060       .  S
C1169      N1194   1.340       .  A
C1169      C1207   1.458       .  S
C1169      H1214   1.081       .  S
H1170      C1211   1.081       .  S
C1171      N1195   1.361       .  A
C1171      C1175   1.493       .  S
C1171      H1200   1.081       .  S
Co1172     N1190   2.056       .  S
Co1172     N1180   2.062       .  S
Co1172     N1212   2.059       .  S
Co1172     N1188   2.053       .  S
Co1172    Cl1216   2.443       .  S
N1173      C1211   1.341       .  A
N1173      N1180   1.315       .  A
N1173     Co1174   2.075       .  S
Co1174     N1177   2.041       .  S
Co1174     N1194   2.071       .  S
Co1174     N1181   2.047       .  S
Co1174    Cl1216   2.436       .  S
C1175      N1213   1.337       .  A
C1175      C4285   1.502       .  S
N1176      N1183   1.321       .  A
N1176      N1206   1.341       .  A
N1176     Co1209   2.170       .  S
N1177      N1195   1.322       .  A
N1177      N1213   1.316       .  A
N1178      C1207   1.345       .  A
N1178      N1188   1.318       .  A
H1179      C1204   1.081       .  S
N1180      N1201   1.319       .  A
N1181      N1199   1.324       .  A
N1181      N1186   1.318       .  A
C1182      N1186   1.336       .  A
C1182      C1210   1.488       .  S
C1182      C3781   1.492       .  S
N1183      C1198   1.323       .  A
N1183     Co1205   2.030       .  S
C1184      N1212   1.333       .  A
C1184      C1187   1.460       .  S
C1184      H1218   1.082       .  S
C1187      N1208   1.348       .  A
C1187      C3417   1.458       .  S
N1188      N1194   1.314       .  A
N1189      C1215   1.323       .  A
N1189      N1191   1.320       .  A
N1189     Co1205   2.021       .  S
N1190      C1204   1.331       .  A
N1191      N1219   1.339       .  A
N1191     Co1209   2.163       .  S
H1192      C1215   1.082       .  S
H1193      C1210   1.081       .  S
N1195     Co1209   2.163       .  S
N1196      N1208   1.322       .  A
N1196      N1212   1.313       .  A
N1196     Co1205   2.066       .  S
C1197      N1201   1.346       .  A
C1197      C1211   1.463       .  S
C1197      C3386   1.474       .  S
C1198      C1217   1.437       .  S
C1198      H1202   1.082       .  S
N1199      C1210   1.359       .  A
N1199     Co1209   2.161       .  S
C1203      N1219   1.370       .  A
C1203      C1215   1.429       .  S
C1203      C4117   1.480       .  S
Co1205    Cl1216   2.431       .  S
N1206      C1217   1.373       .  A
C1207      C3599   1.456       .  S
Co1209    Cl1216   2.470       .  S
C1217      C4534   1.499       .  S
C1220      N1238   1.335       .  A
C1220      C1257   1.493       .  S
C1220      C4621   1.498       .  S
N1221      N1238   1.314       .  A
N1221      N1243   1.323       .  A
N1221     Co1258   2.036       .  S
C1222      N1247   1.328       .  A
C1222      C1260   1.432       .  S
C1222      H1267   1.081       .  S
H1223      C1264   1.081       .  S
C1224      N1248   1.331       .  A
C1224      C1228   1.454       .  S
C1224      H1253   1.082       .  S
Co1225     N1243   2.164       .  S
Co1225     N1233   2.176       .  S
Co1225     N1265   2.157       .  S
Co1225     N1241   2.176       .  S
Co1225    Cl1269   2.472       .  S
N1226      C1264   1.329       .  A
N1226      N1233   1.322       .  A
N1226     Co1227   2.038       .  S
Co1227     N1230   2.064       .  S
Co1227     N1247   2.036       .  S
Co1227     N1234   2.061       .  S
Co1227    Cl1269   2.438       .  S
C1228      N1266   1.347       .  A
C1228      C3358   1.461       .  S
N1229      N1236   1.314       .  A
N1229      N1259   1.316       .  A
N1229     Co1262   2.059       .  S
N1230      N1248   1.315       .  A
N1230      N1266   1.324       .  A
N1231      C1260   1.373       .  A
N1231      N1241   1.342       .  A
H1232      C1257   1.080       .  S
N1233      N1254   1.341       .  A
N1234      N1252   1.314       .  A
N1234      N1239   1.321       .  A
C1235      N1239   1.346       .  A
C1235      C1263   1.459       .  S
C1235      C3330   1.454       .  S
N1236      C1251   1.346       .  A
N1236     Co1258   2.076       .  S
C1237      N1265   1.360       .  A
C1237      C1240   1.486       .  S
C1237      H1271   1.081       .  S
C1240      N1261   1.332       .  A
C1240      C4061   1.480       .  S
N1241      N1247   1.321       .  A
N1242      C1268   1.340       .  A
N1242      N1244   1.313       .  A
N1242     Co1258   2.072       .  S
N1243      C1257   1.360       .  A
N1244      N1272   1.319       .  A
N1244     Co1262   2.066       .  S
H1245      C1268   1.079       .  S
H1246      C1263   1.082       .  S
N1248     Co1262   2.057       .  S
N1249      N1261   1.315       .  A
N1249      N1265   1.324       .  A
N1249     Co1258   2.038       .  S
C1250      N1254   1.371       .  A
C1250      C1264   1.435       .  S
C1250      C4243   1.493       .  S
C1251      C1270   1.464       .  S
C1251      H1255   1.082       .  S
N1252      C1263   1.334       .  A
N1252     Co1262   2.062       .  S
C1256      N1272   1.351       .  A
C1256      C1268   1.468       .  S
C1256      C3372   1.483       .  S
Co1258    Cl1269   2.436       .  S
N1259      C1270   1.344       .  A
C1260      C3725   1.493       .  S
Co1262    Cl1269   2.439       .  S
C1270      C3344   1.474       .  S
C1273      N1291   1.348       .  A
C1273      C1310   1.459       .  S
C1273      C3288   1.473       .  S
N1274      N1291   1.323       .  A
N1274      N1296   1.315       .  A
N1274     Co1311   2.069       .  S
C1275      N1300   1.340       .  A
C1275      C1313   1.459       .  S
C1275      H1320   1.081       .  S
H1276      C1317   1.081       .  S
C1277      N1301   1.362       .  A
C1277      C1281   1.489       .  S
C1277      H1306   1.081       .  S
Co1278     N1296   2.068       .  S
Co1278     N1286   2.058       .  S
Co1278     N1318   2.054       .  S
Co1278     N1294   2.064       .  S
Co1278    Cl1322   2.436       .  S
N1279      C1317   1.340       .  A
N1279      N1286   1.315       .  A
N1279     Co1280   2.065       .  S
Co1280     N1283   2.038       .  S
Co1280     N1300   2.071       .  S
Co1280     N1287   2.040       .  S
Co1280    Cl1322   2.442       .  S
C1281      N1319   1.335       .  A
C1281      C4859   1.495       .  S
N1282      N1289   1.322       .  A
N1282      N1312   1.340       .  A
N1282     Co1315   2.165       .  S
N1283      N1301   1.323       .  A
N1283      N1319   1.316       .  A
N1284      C1313   1.346       .  A
N1284      N1294   1.320       .  A
H1285      C1310   1.081       .  S
N1286      N1307   1.317       .  A
N1287      N1305   1.323       .  A
N1287      N1292   1.317       .  A
C1288      N1292   1.334       .  A
C1288      C1316   1.489       .  S
C1288      C4366   1.491       .  S
N1289      C1304   1.327       .  A
N1289     Co1311   2.040       .  S
C1290      N1318   1.330       .  A
C1290      C1293   1.458       .  S
C1290      H1324   1.082       .  S
C1293      N1314   1.349       .  A
C1293      C3319   1.457       .  S
N1294      N1300   1.315       .  A
N1295      C1321   1.327       .  A
N1295      N1297   1.322       .  A
N1295     Co1311   2.034       .  S
N1296      C1310   1.337       .  A
N1297      N1325   1.341       .  A
N1297     Co1315   2.173       .  S
H1298      C1321   1.081       .  S
H1299      C1316   1.081       .  S
N1301     Co1315   2.169       .  S
N1302      N1314   1.323       .  A
N1302      N1318   1.313       .  A
N1302     Co1311   2.064       .  S
C1303      N1307   1.346       .  A
C1303      C1317   1.457       .  S
C1303      C3277   1.461       .  S
C1304      C1323   1.437       .  S
C1304      H1308   1.081       .  S
N1305      C1316   1.360       .  A
N1305     Co1315   2.164       .  S
C1309      N1325   1.372       .  A
C1309      C1321   1.432       .  S
C1309      C4523   1.490       .  S
Co1311    Cl1322   2.440       .  S
N1312      C1323   1.370       .  A
C1313      C3305   1.458       .  S
Co1315    Cl1322   2.467       .  S
C1323      C5027   1.492       .  S
C1326      N1344   1.334       .  A
C1326      C1363   1.499       .  S
C1326      C4481   1.506       .  S
N1327      N1344   1.314       .  A
N1327      N1349   1.322       .  A
N1327     Co1364   2.033       .  S
C1328      N1353   1.321       .  A
C1328      C1366   1.437       .  S
C1328      H1373   1.080       .  S
H1329      C1370   1.082       .  S
C1330      N1354   1.336       .  A
C1330      C1334   1.462       .  S
C1330      H1359   1.081       .  S
Co1331     N1349   2.170       .  S
Co1331     N1339   2.176       .  S
Co1331     N1371   2.163       .  S
Co1331     N1347   2.176       .  S
Co1331    Cl1375   2.481       .  S
N1332      C1370   1.329       .  A
N1332      N1339   1.323       .  A
N1332     Co1333   2.038       .  S
Co1333     N1336   2.067       .  S
Co1333     N1353   2.030       .  S
Co1333     N1340   2.078       .  S
Co1333    Cl1375   2.426       .  S
C1334      N1372   1.349       .  A
C1334      C3389   1.479       .  S
N1335      N1342   1.315       .  A
N1335      N1365   1.320       .  A
N1335     Co1368   2.062       .  S
N1336      N1354   1.314       .  A
N1336      N1372   1.321       .  A
N1337      C1366   1.376       .  A
N1337      N1347   1.343       .  A
H1338      C1363   1.080       .  S
N1339      N1360   1.340       .  A
N1340      N1358   1.315       .  A
N1340      N1345   1.323       .  A
C1341      N1345   1.348       .  A
C1341      C1369   1.457       .  S
C1341      C3585   1.458       .  S
N1342      C1357   1.340       .  A
N1342     Co1364   2.069       .  S
C1343      N1371   1.362       .  A
C1343      C1346   1.488       .  S
C1343      H1377   1.081       .  S
C1346      N1367   1.330       .  A
C1346      C3249   1.483       .  S
N1347      N1353   1.320       .  A
N1348      C1374   1.338       .  A
N1348      N1350   1.313       .  A
N1348     Co1364   2.060       .  S
N1349      C1363   1.362       .  A
N1350      N1378   1.319       .  A
N1350     Co1368   2.066       .  S
H1351      C1374   1.081       .  S
H1352      C1369   1.081       .  S
N1354     Co1368   2.064       .  S
N1355      N1367   1.314       .  A
N1355      N1371   1.323       .  A
N1355     Co1364   2.032       .  S
C1356      N1360   1.370       .  A
C1356      C1370   1.434       .  S
C1356      C4299   1.490       .  S
C1357      C1376   1.458       .  S
C1357      H1361   1.081       .  S
N1358      C1369   1.336       .  A
N1358     Co1368   2.062       .  S
C1362      N1378   1.349       .  A
C1362      C1374   1.454       .  S
C1362      C3235   1.455       .  S
Co1364    Cl1375   2.425       .  S
N1365      C1376   1.347       .  A
C1366      C3218   1.505       .  S
Co1368    Cl1375   2.456       .  S
C1376      C3260   1.468       .  S
C1379      N1397   1.348       .  A
C1379      C1416   1.458       .  S
C1379      C3207   1.462       .  S
N1380      N1397   1.322       .  A
N1380      N1402   1.314       .  A
N1380     Co1417   2.061       .  S
C1381      N1406   1.340       .  A
C1381      C1419   1.456       .  S
C1381      H1426   1.081       .  S
H1382      C1423   1.081       .  S
C1383      N1407   1.362       .  A
C1383      C1387   1.492       .  S
C1383      H1412   1.081       .  S
Co1384     N1402   2.058       .  S
Co1384     N1392   2.068       .  S
Co1384     N1424   2.068       .  S
Co1384     N1400   2.059       .  S
Co1384    Cl1428   2.447       .  S
N1385      C1423   1.337       .  A
N1385      N1392   1.315       .  A
N1385     Co1386   2.064       .  S
Co1386     N1389   2.031       .  S
Co1386     N1406   2.062       .  S
Co1386     N1393   2.031       .  S
Co1386    Cl1428   2.432       .  S
C1387      N1425   1.333       .  A
C1387      C4355   1.496       .  S
N1388      N1395   1.322       .  A
N1388      N1418   1.338       .  A
N1388     Co1421   2.168       .  S
N1389      N1407   1.322       .  A
N1389      N1425   1.315       .  A
N1390      C1419   1.347       .  A
N1390      N1400   1.317       .  A
H1391      C1416   1.082       .  S
N1392      N1413   1.322       .  A
N1393      N1411   1.323       .  A
N1393      N1398   1.316       .  A
C1394      N1398   1.332       .  A
C1394      C1422   1.492       .  S
C1394      C3165   1.491       .  S
N1395      C1410   1.328       .  A
N1395     Co1417   2.034       .  S
C1396      N1424   1.337       .  A
C1396      C1399   1.460       .  S
C1396      H1430   1.081       .  S
C1399      N1420   1.348       .  A
C1399      C3669   1.473       .  S
N1400      N1406   1.314       .  A
N1401      C1427   1.326       .  A
N1401      N1403   1.322       .  A
N1401     Co1417   2.027       .  S
N1402      C1416   1.331       .  A
N1403      N1431   1.339       .  A
N1403     Co1421   2.169       .  S
H1404      C1427   1.082       .  S
H1405      C1422   1.081       .  S
N1407     Co1421   2.167       .  S
N1408      N1420   1.322       .  A
N1408      N1424   1.315       .  A
N1408     Co1417   2.068       .  S
C1409      N1413   1.347       .  A
C1409      C1423   1.453       .  S
C1409      C3302   1.458       .  S
C1410      C1429   1.435       .  S
C1410      H1414   1.082       .  S
N1411      C1422   1.362       .  A
N1411     Co1421   2.170       .  S
C1415      N1431   1.371       .  A
C1415      C1427   1.430       .  S
C1415      C3193   1.483       .  S
Co1417    Cl1428   2.435       .  S
N1418      C1429   1.370       .  A
C1419      C3176   1.458       .  S
Co1421    Cl1428   2.469       .  S
C1429      C4677   1.486       .  S
C1432      N1450   1.332       .  A
C1432      C1469   1.491       .  S
C1432      C4411   1.492       .  S
N1433      N1450   1.317       .  A
N1433      N1455   1.326       .  A
N1433     Co1470   2.043       .  S
C1434      N1459   1.328       .  A
C1434      C1472   1.434       .  S
C1434      H1479   1.081       .  S
H1435      C1476   1.078       .  S
C1436      N1460   1.327       .  A
C1436      C1440   1.459       .  S
C1436      H1465   1.080       .  S
Co1437     N1455   2.176       .  S
Co1437     N1445   2.186       .  S
Co1437     N1477   2.175       .  S
Co1437     N1453   2.162       .  S
Co1437    Cl1481   2.485       .  S
N1438      C1476   1.323       .  A
N1438      N1445   1.321       .  A
N1438     Co1439   2.025       .  S
Co1439     N1442   2.069       .  S
Co1439     N1459   2.043       .  S
Co1439     N1446   2.059       .  S
Co1439    Cl1481   2.425       .  S
C1440      N1478   1.352       .  A
C1440      C3151   1.476       .  S
N1441      N1448   1.313       .  A
N1441      N1471   1.320       .  A
N1441     Co1474   2.066       .  S
N1442      N1460   1.312       .  A
N1442      N1478   1.325       .  A
N1443      C1472   1.369       .  A
N1443      N1453   1.339       .  A
H1444      C1469   1.081       .  S
N1445      N1466   1.343       .  A
N1446      N1464   1.315       .  A
N1446      N1451   1.321       .  A
C1447      N1451   1.346       .  A
C1447      C1475   1.459       .  S
C1447      C3473   1.460       .  S
N1448      C1463   1.338       .  A
N1448     Co1470   2.059       .  S
C1449      N1477   1.363       .  A
C1449      C1452   1.496       .  S
C1449      H1483   1.081       .  S
C1452      N1473   1.330       .  A
C1452      C3106   1.495       .  S
N1453      N1459   1.323       .  A
N1454      C1480   1.345       .  A
N1454      N1456   1.315       .  A
N1454     Co1470   2.087       .  S
N1455      C1469   1.363       .  A
N1456      N1484   1.317       .  A
N1456     Co1474   2.053       .  S
H1457      C1480   1.081       .  S
H1458      C1475   1.081       .  S
N1460     Co1474   2.047       .  S
N1461      N1473   1.312       .  A
N1461      N1477   1.323       .  A
N1461     Co1470   2.022       .  S
C1462      N1466   1.378       .  A
C1462      C1476   1.437       .  S
C1462      C4341   1.506       .  S
C1463      C1482   1.458       .  S
C1463      H1467   1.081       .  S
N1464      C1475   1.339       .  A
N1464     Co1474   2.074       .  S
C1468      N1484   1.345       .  A
C1468      C1480   1.466       .  S
C1468      C3092   1.474       .  S
Co1470    Cl1481   2.430       .  S
N1471      C1482   1.348       .  A
C1472      C3120   1.485       .  S
Co1474    Cl1481   2.449       .  S
C1482      C3134   1.471       .  S
C1485      N1503   1.355       .  A
C1485      C1522   1.458       .  S
C1485      C3078   1.479       .  S
N1486      N1503   1.327       .  A
N1486      N1508   1.312       .  A
N1486     Co1523   2.076       .  S
C1487      N1512   1.340       .  A
C1487      C1525   1.459       .  S
C1487      H1532   1.081       .  S
H1488      C1529   1.079       .  S
C1489      N1513   1.357       .  A
C1489      C1493   1.485       .  S
C1489      H1518   1.081       .  S
Co1490     N1508   2.044       .  S
Co1490     N1498   2.071       .  S
Co1490     N1530   2.066       .  S
Co1490     N1506   2.045       .  S
Co1490    Cl1534   2.446       .  S
N1491      C1529   1.338       .  A
N1491      N1498   1.312       .  A
N1491     Co1492   2.056       .  S
Co1492     N1495   2.035       .  S
Co1492     N1512   2.065       .  S
Co1492     N1499   2.017       .  S
Co1492    Cl1534   2.431       .  S
C1493      N1531   1.332       .  A
C1493      C3008   1.481       .  S
N1494      N1501   1.324       .  A
N1494      N1524   1.340       .  A
N1494     Co1527   2.175       .  S
N1495      N1513   1.323       .  A
N1495      N1531   1.315       .  A
N1496      C1525   1.346       .  A
N1496      N1506   1.315       .  A
H1497      C1522   1.079       .  S
N1498      N1519   1.320       .  A
N1499      N1517   1.321       .  A
N1499      N1504   1.310       .  A
C1500      N1504   1.329       .  A
C1500      C1528   1.502       .  S
C1500      C3109   1.504       .  S
N1501      C1516   1.325       .  A
N1501     Co1523   2.028       .  S
C1502      N1530   1.336       .  A
C1502      C1505   1.458       .  S
C1502      H1536   1.081       .  S
C1505      N1526   1.347       .  A
C1505      C3039   1.468       .  S
N1506      N1512   1.311       .  A
N1507      C1533   1.325       .  A
N1507      N1509   1.324       .  A
N1507     Co1523   2.038       .  S
N1508      C1522   1.325       .  A
N1509      N1537   1.338       .  A
N1509     Co1527   2.158       .  S
H1510      C1533   1.082       .  S
H1511      C1528   1.081       .  S
N1513     Co1527   2.152       .  S
N1514      N1526   1.322       .  A
N1514      N1530   1.314       .  A
N1514     Co1523   2.062       .  S
C1515      N1519   1.350       .  A
C1515      C1529   1.462       .  S
C1515      C3064   1.477       .  S
C1516      C1535   1.429       .  S
C1516      H1520   1.082       .  S
N1517      C1528   1.367       .  A
N1517     Co1527   2.181       .  S
C1521      N1537   1.367       .  A
C1521      C1533   1.431       .  S
C1521      C3025   1.477       .  S
Co1523    Cl1534   2.436       .  S
N1524      C1535   1.370       .  A
C1525      C3050   1.457       .  S
Co1527    Cl1534   2.463       .  S
C1535      C3246   1.483       .  S
C1538      N1556   1.330       .  A
C1538      C1575   1.493       .  S
C1538      C4019   1.489       .  S
N1539      N1556   1.315       .  A
N1539      N1561   1.325       .  A
N1539     Co1576   2.030       .  S
C1540      N1565   1.320       .  A
C1540      C1578   1.437       .  S
C1540      H1585   1.080       .  S
H1541      C1582   1.080       .  S
C1542      N1566   1.332       .  A
C1542      C1546   1.453       .  S
C1542      H1571   1.081       .  S
Co1543     N1561   2.179       .  S
Co1543     N1551   2.187       .  S
Co1543     N1583   2.181       .  S
Co1543     N1559   2.177       .  S
Co1543    Cl1587   2.486       .  S
N1544      C1582   1.321       .  A
N1544      N1551   1.321       .  A
N1544     Co1545   2.017       .  S
Co1545     N1548   2.061       .  S
Co1545     N1565   2.027       .  S
Co1545     N1552   2.056       .  S
Co1545    Cl1587   2.414       .  S
C1546      N1584   1.347       .  A
C1546      C2994   1.454       .  S
N1547      N1554   1.315       .  A
N1547      N1577   1.317       .  A
N1547     Co1580   2.058       .  S
N1548      N1566   1.312       .  A
N1548      N1584   1.323       .  A
N1549      C1578   1.378       .  A
N1549      N1559   1.343       .  A
H1550      C1575   1.081       .  S
N1551      N1572   1.343       .  A
N1552      N1570   1.312       .  A
N1552      N1557   1.322       .  A
C1553      N1557   1.346       .  A
C1553      C1581   1.457       .  S
C1553      C2952   1.455       .  S
N1554      C1569   1.343       .  A
N1554     Co1576   2.079       .  S
C1555      N1583   1.365       .  A
C1555      C1558   1.493       .  S
C1555      H1589   1.081       .  S
C1558      N1579   1.331       .  A
C1558      C2980   1.493       .  S
N1559      N1565   1.319       .  A
N1560      C1586   1.341       .  A
N1560      N1562   1.313       .  A
N1560     Co1576   2.065       .  S
N1561      C1575   1.362       .  A
N1562      N1590   1.314       .  A
N1562     Co1580   2.042       .  S
H1563      C1586   1.081       .  S
H1564      C1581   1.081       .  S
N1566     Co1580   2.050       .  S
N1567      N1579   1.314       .  A
N1567      N1583   1.325       .  A
N1567     Co1576   2.033       .  S
C1568      N1572   1.378       .  A
C1568      C1582   1.432       .  S
C1568      C3963   1.501       .  S
C1569      C1588   1.466       .  S
C1569      H1573   1.081       .  S
N1570      C1581   1.333       .  A
N1570     Co1580   2.056       .  S
C1574      N1590   1.342       .  A
C1574      C1586   1.457       .  S
C1574      C2966   1.457       .  S
Co1576    Cl1587   2.432       .  S
N1577      C1588   1.345       .  A
C1578      C2938   1.508       .  S
Co1580    Cl1587   2.444       .  S
C1588      C3375   1.477       .  S
C1591      N1609   1.347       .  A
C1591      C1628   1.453       .  S
C1591      C2882   1.457       .  S
N1592      N1609   1.323       .  A
N1592      N1614   1.312       .  A
N1592     Co1629   2.057       .  S
C1593      N1618   1.344       .  A
C1593      C1631   1.463       .  S
C1593      H1638   1.082       .  S
H1594      C1635   1.081       .  S
C1595      N1619   1.360       .  A
C1595      C1599   1.488       .  S
C1595      H1624   1.081       .  S
Co1596     N1614   2.050       .  S
Co1596     N1604   2.050       .  S
Co1596     N1636   2.056       .  S
Co1596     N1612   2.048       .  S
Co1596    Cl1640   2.429       .  S
N1597      C1635   1.346       .  A
N1597      N1604   1.313       .  A
N1597     Co1598   2.071       .  S
Co1598     N1601   2.034       .  S
Co1598     N1618   2.077       .  S
Co1598     N1605   2.029       .  S
Co1598    Cl1640   2.447       .  S
C1599      N1637   1.334       .  A
C1599      C3221   1.490       .  S
N1600      N1607   1.323       .  A
N1600      N1630   1.339       .  A
N1600     Co1633   2.162       .  S
N1601      N1619   1.325       .  A
N1601      N1637   1.317       .  A
N1602      C1631   1.344       .  A
N1602      N1612   1.315       .  A
H1603      C1628   1.081       .  S
N1604      N1625   1.311       .  A
N1605      N1623   1.326       .  A
N1605      N1610   1.314       .  A
C1606      N1610   1.329       .  A
C1606      C1634   1.492       .  S
C1606      C2983   1.484       .  S
N1607      C1622   1.331       .  A
N1607     Co1629   2.053       .  S
C1608      N1636   1.334       .  A
C1608      C1611   1.462       .  S
C1608      H1642   1.081       .  S
C1611      N1632   1.351       .  A
C1611      C2896   1.481       .  S
N1612      N1618   1.314       .  A
N1613      C1639   1.321       .  A
N1613      N1615   1.319       .  A
N1613     Co1629   2.022       .  S
N1614      C1628   1.330       .  A
N1615      N1643   1.343       .  A
N1615     Co1633   2.182       .  S
H1616      C1639   1.078       .  S
H1617      C1634   1.081       .  S
N1619     Co1633   2.171       .  S
N1620      N1632   1.324       .  A
N1620      N1636   1.312       .  A
N1620     Co1629   2.074       .  S
C1621      N1625   1.341       .  A
C1621      C1635   1.469       .  S
C1621      C3081   1.478       .  S
C1622      C1641   1.436       .  S
C1622      H1626   1.081       .  S
N1623      C1634   1.362       .  A
N1623     Co1633   2.177       .  S
C1627      N1643   1.377       .  A
C1627      C1639   1.434       .  S
C1627      C2910   1.504       .  S
Co1629    Cl1640   2.426       .  S
N1630      C1641   1.369       .  A
C1631      C2924   1.463       .  S
Co1633    Cl1640   2.477       .  S
C1641      C3557   1.489       .  S
C1644      N1662   1.334       .  A
C1644      C1681   1.484       .  S
C1644      C5181   1.484       .  S
N1645      N1662   1.316       .  A
N1645      N1667   1.325       .  A
N1645     Co1682   2.040       .  S
C1646      N1671   1.326       .  A
C1646      C1684   1.429       .  S
C1646      H1691   1.081       .  S
H1647      C1688   1.081       .  S
C1648      N1672   1.330       .  A
C1648      C1652   1.453       .  S
C1648      H1677   1.081       .  S
Co1649     N1667   2.160       .  S
Co1649     N1657   2.176       .  S
Co1649     N1689   2.180       .  S
Co1649     N1665   2.185       .  S
Co1649    Cl1693   2.458       .  S
N1650      C1688   1.328       .  A
N1650      N1657   1.322       .  A
N1650     Co1651   2.037       .  S
Co1651     N1654   2.066       .  S
Co1651     N1671   2.033       .  S
Co1651     N1658   2.068       .  S
Co1651    Cl1693   2.442       .  S
C1652      N1690   1.350       .  A
C1652      C3274   1.461       .  S
N1653      N1660   1.311       .  A
N1653      N1683   1.313       .  A
N1653     Co1686   2.050       .  S
N1654      N1672   1.314       .  A
N1654      N1690   1.324       .  A
N1655      C1684   1.374       .  A
N1655      N1665   1.342       .  A
H1656      C1681   1.081       .  S
N1657      N1678   1.340       .  A
N1658      N1676   1.312       .  A
N1658      N1663   1.324       .  A
C1659      N1663   1.350       .  A
C1659      C1687   1.455       .  S
C1659      C3179   1.459       .  S
N1660      C1675   1.346       .  A
N1660     Co1682   2.068       .  S
C1661      N1689   1.366       .  A
C1661      C1664   1.500       .  S
C1661      H1695   1.081       .  S
C1664      N1685   1.328       .  A
C1664      C2857   1.504       .  S
N1665      N1671   1.324       .  A
N1666      C1692   1.339       .  A
N1666      N1668   1.312       .  A
N1666     Co1682   2.070       .  S
N1667      C1681   1.358       .  A
N1668      N1696   1.317       .  A
N1668     Co1686   2.047       .  S
H1669      C1692   1.076       .  S
H1670      C1687   1.082       .  S
N1672     Co1686   2.054       .  S
N1673      N1685   1.312       .  A
N1673      N1689   1.323       .  A
N1673     Co1682   2.026       .  S
C1674      N1678   1.372       .  A
C1674      C1688   1.438       .  S
C1674      C4870   1.498       .  S
C1675      C1694   1.468       .  S
C1675      H1679   1.081       .  S
N1676      C1687   1.330       .  A
N1676     Co1686   2.046       .  S
C1680      N1696   1.346       .  A
C1680      C1692   1.456       .  S
C1680      C3683   1.454       .  S
Co1682    Cl1693   2.438       .  S
N1683      C1694   1.343       .  A
C1684      C2843   1.491       .  S
Co1686    Cl1693   2.439       .  S
C1694      C2868   1.479       .  S
C1697      N1715   1.351       .  A
C1697      C1734   1.453       .  S
C1697      C2826   1.465       .  S
N1698      N1715   1.326       .  A
N1698      N1720   1.312       .  A
N1698     Co1735   2.068       .  S
C1699      N1724   1.342       .  A
C1699      C1737   1.460       .  S
C1699      H1744   1.081       .  S
H1700      C1741   1.082       .  S
C1701      N1725   1.362       .  A
C1701      C1705   1.496       .  S
C1701      H1730   1.080       .  S
Co1702     N1720   2.045       .  S
Co1702     N1710   2.050       .  S
Co1702     N1742   2.059       .  S
Co1702     N1718   2.049       .  S
Co1702    Cl1746   2.424       .  S
N1703      C1741   1.343       .  A
N1703      N1710   1.312       .  A
N1703     Co1704   2.062       .  S
Co1704     N1707   2.036       .  S
Co1704     N1724   2.070       .  S
Co1704     N1711   2.028       .  S
Co1704    Cl1746   2.438       .  S
C1705      N1743   1.335       .  A
C1705      C4789   1.503       .  S
N1706      N1713   1.322       .  A
N1706      N1736   1.339       .  A
N1706     Co1739   2.165       .  S
N1707      N1725   1.322       .  A
N1707      N1743   1.314       .  A
N1708      C1737   1.344       .  A
N1708      N1718   1.315       .  A
H1709      C1734   1.081       .  S
N1710      N1731   1.313       .  A
N1711      N1729   1.321       .  A
N1711      N1716   1.312       .  A
C1712      N1716   1.333       .  A
C1712      C1740   1.497       .  S
C1712      C2815   1.502       .  S
N1713      C1728   1.324       .  A
N1713     Co1735   2.031       .  S
C1714      N1742   1.334       .  A
C1714      C1717   1.461       .  S
C1714      H1748   1.081       .  S
C1717      N1738   1.352       .  A
C1717      C3095   1.480       .  S
N1718      N1724   1.314       .  A
N1719      C1745   1.322       .  A
N1719      N1721   1.323       .  A
N1719     Co1735   2.026       .  S
N1720      C1734   1.326       .  A
N1721      N1749   1.339       .  A
N1721     Co1739   2.162       .  S
H1722      C1745   1.082       .  S
H1723      C1740   1.081       .  S
N1725     Co1739   2.168       .  S
N1726      N1738   1.325       .  A
N1726      N1742   1.312       .  A
N1726     Co1735   2.074       .  S
C1727      N1731   1.341       .  A
C1727      C1741   1.463       .  S
C1727      C3526   1.467       .  S
C1728      C1747   1.438       .  S
C1728      H1732   1.081       .  S
N1729      C1740   1.363       .  A
N1729     Co1739   2.168       .  S
C1733      N1749   1.369       .  A
C1733      C1745   1.428       .  S
C1733      C3022   1.476       .  S
Co1735    Cl1746   2.435       .  S
N1736      C1747   1.371       .  A
C1737      C3459   1.457       .  S
Co1739    Cl1746   2.472       .  S
C1747      C4985   1.495       .  S
C1750      N1768   1.349       .  A
C1750      C1787   1.461       .  S
C1750      C2798   1.474       .  S
N1751      N1768   1.323       .  A
N1751      N1773   1.311       .  A
N1751     Co1788   2.058       .  S
C1752      N1777   1.345       .  A
C1752      C1790   1.464       .  S
C1752      H1797   1.082       .  S
H1753      C1794   1.082       .  S
C1754      N1778   1.360       .  A
C1754      C1758   1.490       .  S
C1754      H1783   1.081       .  S
Co1755     N1773   2.055       .  S
Co1755     N1763   2.053       .  S
Co1755     N1795   2.051       .  S
Co1755     N1771   2.051       .  S
Co1755    Cl1799   2.428       .  S
N1756      C1794   1.343       .  A
N1756      N1763   1.313       .  A
N1756     Co1757   2.063       .  S
Co1757     N1760   2.039       .  S
Co1757     N1777   2.075       .  S
Co1757     N1764   2.019       .  S
Co1757    Cl1799   2.438       .  S
C1758      N1796   1.333       .  A
C1758      C4845   1.490       .  S
N1759      N1766   1.320       .  A
N1759      N1789   1.342       .  A
N1759     Co1792   2.186       .  S
N1760      N1778   1.326       .  A
N1760      N1796   1.316       .  A
N1761      C1790   1.344       .  A
N1761      N1771   1.314       .  A
H1762      C1787   1.080       .  S
N1763      N1784   1.314       .  A
N1764      N1782   1.322       .  A
N1764      N1769   1.311       .  A
C1765      N1769   1.330       .  A
C1765      C1793   1.496       .  S
C1765      C2770   1.495       .  S
N1766      C1781   1.322       .  A
N1766     Co1788   2.018       .  S
C1767      N1795   1.333       .  A
C1767      C1770   1.455       .  S
C1767      H1801   1.082       .  S
C1770      N1791   1.347       .  A
C1770      C3232   1.454       .  S
N1771      N1777   1.313       .  A
N1772      C1798   1.320       .  A
N1772      N1774   1.321       .  A
N1772     Co1788   2.027       .  S
N1773      C1787   1.330       .  A
N1774      N1802   1.341       .  A
N1774     Co1792   2.165       .  S
H1775      C1798   1.081       .  S
H1776      C1793   1.081       .  S
N1778     Co1792   2.171       .  S
N1779      N1791   1.323       .  A
N1779      N1795   1.311       .  A
N1779     Co1788   2.064       .  S
C1780      N1784   1.343       .  A
C1780      C1794   1.460       .  S
C1780      C2784   1.463       .  S
C1781      C1800   1.435       .  S
C1781      H1785   1.079       .  S
N1782      C1793   1.363       .  A
N1782     Co1792   2.171       .  S
C1786      N1802   1.373       .  A
C1786      C1798   1.432       .  S
C1786      C3011   1.492       .  S
Co1788    Cl1799   2.427       .  S
N1789      C1800   1.377       .  A
C1790      C3610   1.470       .  S
Co1792    Cl1799   2.475       .  S
C1800      C4915   1.503       .  S
C1803      N1821   1.331       .  A
C1803      C1840   1.493       .  S
C1803      C3652   1.493       .  S
N1804      N1821   1.314       .  A
N1804      N1826   1.325       .  A
N1804     Co1841   2.037       .  S
C1805      N1830   1.327       .  A
C1805      C1843   1.433       .  S
C1805      H1850   1.081       .  S
H1806      C1847   1.079       .  S
C1807      N1831   1.336       .  A
C1807      C1811   1.457       .  S
C1807      H1836   1.081       .  S
Co1808     N1826   2.174       .  S
Co1808     N1816   2.178       .  S
Co1808     N1848   2.169       .  S
Co1808     N1824   2.161       .  S
Co1808    Cl1852   2.496       .  S
N1809      C1847   1.320       .  A
N1809      N1816   1.320       .  A
N1809     Co1810   2.021       .  S
Co1810     N1813   2.067       .  S
Co1810     N1830   2.044       .  S
Co1810     N1817   2.059       .  S
Co1810    Cl1852   2.411       .  S
C1811      N1849   1.348       .  A
C1811      C2756   1.461       .  S
N1812      N1819   1.313       .  A
N1812      N1842   1.318       .  A
N1812     Co1845   2.052       .  S
N1813      N1831   1.313       .  A
N1813      N1849   1.321       .  A
N1814      C1843   1.369       .  A
N1814      N1824   1.339       .  A
H1815      C1840   1.081       .  S
N1816      N1837   1.342       .  A
N1817      N1835   1.312       .  A
N1817      N1822   1.323       .  A
C1818      N1822   1.348       .  A
C1818      C1846   1.457       .  S
C1818      C2885   1.460       .  S
N1819      C1834   1.337       .  A
N1819     Co1841   2.057       .  S
C1820      N1848   1.364       .  A
C1820      C1823   1.499       .  S
C1820      H1854   1.081       .  S
C1823      N1844   1.331       .  A
C1823      C2773   1.502       .  S
N1824      N1830   1.324       .  A
N1825      C1851   1.342       .  A
N1825      N1827   1.313       .  A
N1825     Co1841   2.076       .  S
N1826      C1840   1.364       .  A
N1827      N1855   1.318       .  A
N1827     Co1845   2.054       .  S
H1828      C1851   1.081       .  S
H1829      C1846   1.082       .  S
N1831     Co1845   2.059       .  S
N1832      N1844   1.310       .  A
N1832      N1848   1.321       .  A
N1832     Co1841   2.021       .  S
C1833      N1837   1.376       .  A
C1833      C1847   1.434       .  S
C1833      C2854   1.501       .  S
C1834      C1853   1.452       .  S
C1834      H1838   1.081       .  S
N1835      C1846   1.329       .  A
N1835     Co1845   2.052       .  S
C1839      N1855   1.346       .  A
C1839      C1851   1.465       .  S
C1839      C3067   1.474       .  S
Co1841    Cl1852   2.412       .  S
N1842      C1853   1.346       .  A
C1843      C3571   1.483       .  S
Co1845    Cl1852   2.454       .  S
C1853      C2742   1.450       .  S
C1856      N1874   1.352       .  A
C1856      C1893   1.463       .  S
C1856      C2714   1.482       .  S
N1857      N1874   1.324       .  A
N1857      N1879   1.312       .  A
N1857     Co1894   2.073       .  S
C1858      N1883   1.341       .  A
C1858      C1896   1.459       .  S
C1858      H1903   1.081       .  S
H1859      C1900   1.081       .  S
C1860      N1884   1.364       .  A
C1860      C1864   1.496       .  S
C1860      H1889   1.081       .  S
Co1861     N1879   2.055       .  S
Co1861     N1869   2.067       .  S
Co1861     N1901   2.058       .  S
Co1861     N1877   2.049       .  S
Co1861    Cl1905   2.449       .  S
N1862      C1900   1.339       .  A
N1862      N1869   1.315       .  A
N1862     Co1863   2.066       .  S
Co1863     N1866   2.035       .  S
Co1863     N1883   2.070       .  S
Co1863     N1870   2.036       .  S
Co1863    Cl1905   2.433       .  S
C1864      N1902   1.335       .  A
C1864      C4747   1.506       .  S
N1865      N1872   1.322       .  A
N1865      N1895   1.341       .  A
N1865     Co1898   2.169       .  S
N1866      N1884   1.322       .  A
N1866      N1902   1.315       .  A
N1867      C1896   1.343       .  A
N1867      N1877   1.316       .  A
H1868      C1893   1.078       .  S
N1869      N1890   1.320       .  A
N1870      N1888   1.326       .  A
N1870      N1875   1.316       .  A
C1871      N1875   1.331       .  A
C1871      C1899   1.496       .  S
C1871      C3739   1.496       .  S
N1872      C1887   1.324       .  A
N1872     Co1894   2.042       .  S
C1873      N1901   1.333       .  A
C1873      C1876   1.459       .  S
C1873      H1907   1.082       .  S
C1876      N1897   1.348       .  A
C1876      C2997   1.456       .  S
N1877      N1883   1.313       .  A
N1878      C1904   1.322       .  A
N1878      N1880   1.320       .  A
N1878     Co1894   2.028       .  S
N1879      C1893   1.333       .  A
N1880      N1908   1.342       .  A
N1880     Co1898   2.175       .  S
H1881      C1904   1.079       .  S
H1882      C1899   1.081       .  S
N1884     Co1898   2.172       .  S
N1885      N1897   1.322       .  A
N1885      N1901   1.312       .  A
N1885     Co1894   2.064       .  S
C1886      N1890   1.347       .  A
C1886      C1900   1.457       .  S
C1886      C2728   1.465       .  S
C1887      C1906   1.441       .  S
C1887      H1891   1.080       .  S
N1888      C1899   1.366       .  A
N1888     Co1898   2.192       .  S
C1892      N1908   1.375       .  A
C1892      C1904   1.436       .  S
C1892      C3949   1.502       .  S
Co1894    Cl1905   2.415       .  S
N1895      C1906   1.374       .  A
C1896      C3333   1.456       .  S
Co1898    Cl1905   2.486       .  S
C1906      C5139   1.503       .  S
C1909      N1927   1.345       .  A
C1909      C1946   1.454       .  S
C1909      C2745   1.449       .  S
N1910      N1927   1.321       .  A
N1910      N1932   1.314       .  A
N1910     Co1947   2.060       .  S
C1911      N1936   1.341       .  A
C1911      C1949   1.465       .  S
C1911      H1956   1.079       .  S
H1912      C1953   1.082       .  S
C1913      N1937   1.364       .  A
C1913      C1917   1.492       .  S
C1913      H1942   1.081       .  S
Co1914     N1932   2.056       .  S
Co1914     N1922   2.057       .  S
Co1914     N1954   2.054       .  S
Co1914     N1930   2.056       .  S
Co1914    Cl1958   2.447       .  S
N1915      C1953   1.342       .  A
N1915      N1922   1.313       .  A
N1915     Co1916   2.072       .  S
Co1916     N1919   2.029       .  S
Co1916     N1936   2.066       .  S
Co1916     N1923   2.033       .  S
Co1916    Cl1958   2.423       .  S
C1917      N1955   1.330       .  A
C1917      C3190   1.489       .  S
N1918      N1925   1.320       .  A
N1918      N1948   1.341       .  A
N1918     Co1951   2.175       .  S
N1919      N1937   1.324       .  A
N1919      N1955   1.313       .  A
N1920      C1949   1.348       .  A
N1920      N1930   1.316       .  A
H1921      C1946   1.081       .  S
N1922      N1943   1.317       .  A
N1923      N1941   1.323       .  A
N1923      N1928   1.313       .  A
C1924      N1928   1.331       .  A
C1924      C1952   1.491       .  S
C1924      C3431   1.490       .  S
N1925      C1940   1.325       .  A
N1925     Co1947   2.028       .  S
C1926      N1954   1.332       .  A
C1926      C1929   1.457       .  S
C1926      H1960   1.082       .  S
C1929      N1950   1.346       .  A
C1929      C3053   1.456       .  S
N1930      N1936   1.312       .  A
N1931      C1957   1.325       .  A
N1931      N1933   1.322       .  A
N1931     Co1947   2.033       .  S
N1932      C1946   1.334       .  A
N1933      N1961   1.341       .  A
N1933     Co1951   2.171       .  S
H1934      C1957   1.081       .  S
H1935      C1952   1.081       .  S
N1937     Co1951   2.173       .  S
N1938      N1950   1.322       .  A
N1938      N1954   1.313       .  A
N1938     Co1947   2.061       .  S
C1939      N1943   1.347       .  A
C1939      C1953   1.461       .  S
C1939      C2700   1.464       .  S
C1940      C1959   1.437       .  S
C1940      H1944   1.080       .  S
N1941      C1952   1.363       .  A
N1941     Co1951   2.164       .  S
C1945      N1961   1.372       .  A
C1945      C1957   1.433       .  S
C1945      C3123   1.491       .  S
Co1947    Cl1958   2.419       .  S
N1948      C1959   1.375       .  A
C1949      C2686   1.475       .  S
Co1951    Cl1958   2.487       .  S
C1959      C3641   1.499       .  S
C1962      N1980   1.333       .  A
C1962      C1999   1.491       .  S
C1962      C4971   1.494       .  S
N1963      N1980   1.315       .  A
N1963      N1985   1.322       .  A
N1963     Co2000   2.031       .  S
C1964      N1989   1.327       .  A
C1964      C2002   1.432       .  S
C1964      H2009   1.082       .  S
H1965      C2006   1.081       .  S
C1966      N1990   1.337       .  A
C1966      C1970   1.459       .  S
C1966      H1995   1.081       .  S
Co1967     N1985   2.166       .  S
Co1967     N1975   2.172       .  S
Co1967     N2007   2.167       .  S
Co1967     N1983   2.166       .  S
Co1967    Cl2011   2.471       .  S
N1968      C2006   1.326       .  A
N1968      N1975   1.322       .  A
N1968     Co1969   2.041       .  S
Co1969     N1972   2.063       .  S
Co1969     N1989   2.031       .  S
Co1969     N1976   2.073       .  S
Co1969    Cl2011   2.436       .  S
C1970      N2008   1.346       .  A
C1970      C2731   1.470       .  S
N1971      N1978   1.315       .  A
N1971      N2001   1.317       .  A
N1971     Co2004   2.058       .  S
N1972      N1990   1.315       .  A
N1972      N2008   1.321       .  A
N1973      C2002   1.369       .  A
N1973      N1983   1.340       .  A
H1974      C1999   1.081       .  S
N1975      N1996   1.341       .  A
N1976      N1994   1.313       .  A
N1976      N1981   1.324       .  A
C1977      N1981   1.351       .  A
C1977      C2005   1.456       .  S
C1977      C3361   1.461       .  S
N1978      C1993   1.340       .  A
N1978     Co2000   2.064       .  S
C1979      N2007   1.363       .  A
C1979      C1982   1.495       .  S
C1979      H2013   1.081       .  S
C1982      N2003   1.334       .  A
C1982      C4467   1.502       .  S
N1983      N1989   1.322       .  A
N1984      C2010   1.337       .  A
N1984      N1986   1.313       .  A
N1984     Co2000   2.062       .  S
N1985      C1999   1.361       .  A
N1986      N2014   1.321       .  A
N1986     Co2004   2.061       .  S
H1987      C2010   1.081       .  S
H1988      C2005   1.082       .  S
N1990     Co2004   2.066       .  S
N1991      N2003   1.313       .  A
N1991      N2007   1.322       .  A
N1991     Co2000   2.034       .  S
C1992      N1996   1.372       .  A
C1992      C2006   1.438       .  S
C1992      C4733   1.498       .  S
C1993      C2012   1.456       .  S
C1993      H1997   1.082       .  S
N1994      C2005   1.329       .  A
N1994     Co2004   2.052       .  S
C1998      N2014   1.347       .  A
C1998      C2010   1.456       .  S
C1998      C2658   1.460       .  S
Co2000    Cl2011   2.433       .  S
N2001      C2012   1.344       .  A
C2002      C4229   1.484       .  S
Co2004    Cl2011   2.440       .  S
C2012      C2672   1.459       .  S
C2015      N2033   1.347       .  A
C2015      C2052   1.455       .  S
C2015      C2703   1.461       .  S
N2016      N2033   1.323       .  A
N2016      N2038   1.315       .  A
N2016     Co2053   2.069       .  S
C2017      N2042   1.343       .  A
C2017      C2055   1.462       .  S
C2017      H2062   1.081       .  S
H2018      C2059   1.081       .  S
C2019      N2043   1.364       .  A
C2019      C2023   1.492       .  S
C2019      H2048   1.081       .  S
Co2020     N2038   2.060       .  S
Co2020     N2028   2.065       .  S
Co2020     N2060   2.064       .  S
Co2020     N2036   2.057       .  S
Co2020    Cl2064   2.448       .  S
N2021      C2059   1.337       .  A
N2021      N2028   1.315       .  A
N2021     Co2022   2.062       .  S
Co2022     N2025   2.038       .  S
Co2022     N2042   2.075       .  S
Co2022     N2029   2.029       .  S
Co2022    Cl2064   2.430       .  S
C2023      N2061   1.332       .  A
C2023      C2840   1.492       .  S
N2024      N2031   1.322       .  A
N2024      N2054   1.344       .  A
N2024     Co2057   2.185       .  S
N2025      N2043   1.324       .  A
N2025      N2061   1.316       .  A
N2026      C2055   1.346       .  A
N2026      N2036   1.318       .  A
H2027      C2052   1.081       .  S
N2028      N2049   1.321       .  A
N2029      N2047   1.323       .  A
N2029      N2034   1.313       .  A
C2030      N2034   1.331       .  A
C2030      C2058   1.499       .  S
C2030      C2616   1.501       .  S
N2031      C2046   1.323       .  A
N2031     Co2053   2.028       .  S
C2032      N2060   1.334       .  A
C2032      C2035   1.456       .  S
C2032      H2066   1.081       .  S
C2035      N2056   1.347       .  A
C2035      C2630   1.458       .  S
N2036      N2042   1.314       .  A
N2037      C2063   1.326       .  A
N2037      N2039   1.322       .  A
N2037     Co2053   2.032       .  S
N2038      C2052   1.334       .  A
N2039      N2067   1.343       .  A
N2039     Co2057   2.181       .  S
H2040      C2063   1.081       .  S
H2041      C2058   1.081       .  S
N2043     Co2057   2.176       .  S
N2044      N2056   1.322       .  A
N2044      N2060   1.314       .  A
N2044     Co2053   2.062       .  S
C2045      N2049   1.347       .  A
C2045      C2059   1.454       .  S
C2045      C2759   1.459       .  S
C2046      C2065   1.434       .  S
C2046      H2050   1.081       .  S
N2047      C2058   1.366       .  A
N2047     Co2057   2.180       .  S
C2051      N2067   1.374       .  A
C2051      C2063   1.432       .  S
C2051      C2647   1.496       .  S
Co2053    Cl2064   2.431       .  S
N2054      C2065   1.377       .  A
C2055      C2899   1.473       .  S
Co2057    Cl2064   2.481       .  S
C2065      C3162   1.503       .  S
C2068      N2086   1.335       .  A
C2068      C2105   1.483       .  S
C2068      C5125   1.483       .  S
N2069      N2086   1.318       .  A
N2069      N2091   1.325       .  A
N2069     Co2106   2.047       .  S
C2070      N2095   1.327       .  A
C2070      C2108   1.431       .  S
C2070      H2115   1.081       .  S
H2071      C2112   1.082       .  S
C2072      N2096   1.330       .  A
C2072      C2076   1.454       .  S
C2072      H2101   1.082       .  S
Co2073     N2091   2.159       .  S
Co2073     N2081   2.171       .  S
Co2073     N2113   2.176       .  S
Co2073     N2089   2.182       .  S
Co2073    Cl2117   2.467       .  S
N2074      C2112   1.328       .  A
N2074      N2081   1.323       .  A
N2074     Co2075   2.034       .  S
Co2075     N2078   2.069       .  S
Co2075     N2095   2.037       .  S
Co2075     N2082   2.069       .  S
Co2075    Cl2117   2.434       .  S
C2076      N2114   1.350       .  A
C2076      C2675   1.458       .  S
N2077      N2084   1.311       .  A
N2077      N2107   1.318       .  A
N2077     Co2110   2.067       .  S
N2078      N2096   1.313       .  A
N2078      N2114   1.324       .  A
N2079      C2108   1.373       .  A
N2079      N2089   1.342       .  A
H2080      C2105   1.081       .  S
N2081      N2102   1.339       .  A
N2082      N2100   1.314       .  A
N2082      N2087   1.323       .  A
C2083      N2087   1.348       .  A
C2083      C2111   1.458       .  S
C2083      C2602   1.461       .  S
N2084      C2099   1.341       .  A
N2084     Co2106   2.059       .  S
C2085      N2113   1.366       .  A
C2085      C2088   1.500       .  S
C2085      H2119   1.081       .  S
C2088      N2109   1.328       .  A
C2088      C2588   1.503       .  S
N2089      N2095   1.324       .  A
N2090      C2116   1.340       .  A
N2090      N2092   1.313       .  A
N2090     Co2106   2.066       .  S
N2091      C2105   1.358       .  A
N2092      N2120   1.316       .  A
N2092     Co2110   2.052       .  S
H2093      C2116   1.081       .  S
H2094      C2111   1.082       .  S
N2096     Co2110   2.049       .  S
N2097      N2109   1.310       .  A
N2097      N2113   1.322       .  A
N2097     Co2106   2.021       .  S
C2098      N2102   1.370       .  A
C2098      C2112   1.434       .  S
C2098      C4943   1.490       .  S
C2099      C2118   1.466       .  S
C2099      H2103   1.079       .  S
N2100      C2111   1.337       .  A
N2100     Co2110   2.068       .  S
C2104      N2120   1.347       .  A
C2104      C2116   1.457       .  S
C2104      C2955   1.457       .  S
Co2106    Cl2117   2.430       .  S
N2107      C2118   1.350       .  A
C2108      C2644   1.491       .  S
Co2110    Cl2117   2.452       .  S
C2118      C2717   1.480       .  S
C2121      N2139   1.349       .  A
C2121      C2158   1.461       .  S
C2121      C3347   1.471       .  S
N2122      N2139   1.324       .  A
N2122      N2144   1.314       .  A
N2122     Co2159   2.066       .  S
C2123      N2148   1.342       .  A
C2123      C2161   1.459       .  S
C2123      H2168   1.081       .  S
H2124      C2165   1.081       .  S
C2125      N2149   1.362       .  A
C2125      C2129   1.493       .  S
C2125      H2154   1.081       .  S
Co2126     N2144   2.064       .  S
Co2126     N2134   2.064       .  S
Co2126     N2166   2.058       .  S
Co2126     N2142   2.061       .  S
Co2126    Cl2170   2.451       .  S
N2127      C2165   1.336       .  A
N2127      N2134   1.315       .  A
N2127     Co2128   2.064       .  S
Co2128     N2131   2.034       .  S
Co2128     N2148   2.074       .  S
Co2128     N2135   2.032       .  S
Co2128    Cl2170   2.428       .  S
C2129      N2167   1.334       .  A
C2129      C4439   1.498       .  S
N2130      N2137   1.323       .  A
N2130      N2160   1.340       .  A
N2130     Co2163   2.162       .  S
N2131      N2149   1.322       .  A
N2131      N2167   1.315       .  A
N2132      C2161   1.346       .  A
N2132      N2142   1.320       .  A
H2133      C2158   1.082       .  S
N2134      N2155   1.321       .  A
N2135      N2153   1.325       .  A
N2135      N2140   1.315       .  A
C2136      N2140   1.330       .  A
C2136      C2164   1.496       .  S
C2136      C2619   1.495       .  S
N2137      C2152   1.329       .  A
N2137     Co2159   2.049       .  S
C2138      N2166   1.331       .  A
C2138      C2141   1.460       .  S
C2138      H2172   1.082       .  S
C2141      N2162   1.347       .  A
C2141      C2969   1.458       .  S
N2142      N2148   1.314       .  A
N2143      C2169   1.323       .  A
N2143      N2145   1.319       .  A
N2143     Co2159   2.031       .  S
N2144      C2158   1.334       .  A
N2145      N2173   1.342       .  A
N2145     Co2163   2.172       .  S
H2146      C2169   1.078       .  S
H2147      C2164   1.081       .  S
N2149     Co2163   2.167       .  S
N2150      N2162   1.322       .  A
N2150      N2166   1.313       .  A
N2150     Co2159   2.062       .  S
C2151      N2155   1.347       .  A
C2151      C2165   1.453       .  S
C2151      C2661   1.458       .  S
C2152      C2171   1.437       .  S
C2152      H2156   1.081       .  S
N2153      C2164   1.364       .  A
N2153     Co2163   2.183       .  S
C2157      N2173   1.376       .  A
C2157      C2169   1.438       .  S
C2157      C2913   1.505       .  S
Co2159    Cl2170   2.417       .  S
N2160      C2171   1.369       .  A
C2161      C2605   1.461       .  S
Co2163    Cl2170   2.487       .  S
C2171      C4649   1.490       .  S
C2174      N2192   1.333       .  A
C2174      C2211   1.491       .  S
C2174      C3445   1.492       .  S
N2175      N2192   1.314       .  A
N2175      N2197   1.323       .  A
N2175     Co2212   2.038       .  S
C2176      N2201   1.325       .  A
C2176      C2214   1.433       .  S
C2176      H2221   1.082       .  S
H2177      C2218   1.081       .  S
C2178      N2202   1.336       .  A
C2178      C2182   1.461       .  S
C2178      H2207   1.080       .  S
Co2179     N2197   2.162       .  S
Co2179     N2187   2.172       .  S
Co2179     N2219   2.174       .  S
Co2179     N2195   2.172       .  S
Co2179    Cl2223   2.488       .  S
N2180      C2218   1.324       .  A
N2180      N2187   1.321       .  A
N2180     Co2181   2.026       .  S
Co2181     N2184   2.067       .  S
Co2181     N2201   2.032       .  S
Co2181     N2188   2.065       .  S
Co2181    Cl2223   2.419       .  S
C2182      N2220   1.348       .  A
C2182      C3036   1.470       .  S
N2183      N2190   1.313       .  A
N2183      N2213   1.320       .  A
N2183     Co2216   2.069       .  S
N2184      N2202   1.314       .  A
N2184      N2220   1.322       .  A
N2185      C2214   1.373       .  A
N2185      N2195   1.340       .  A
H2186      C2211   1.081       .  S
N2187      N2208   1.341       .  A
N2188      N2206   1.313       .  A
N2188      N2193   1.323       .  A
C2189      N2193   1.348       .  A
C2189      C2217   1.459       .  S
C2189      C2927   1.463       .  S
N2190      C2205   1.337       .  A
N2190     Co2212   2.057       .  S
C2191      N2219   1.365       .  A
C2191      C2194   1.498       .  S
C2191      H2225   1.081       .  S
C2194      N2215   1.327       .  A
C2194      C2591   1.500       .  S
N2195      N2201   1.323       .  A
N2196      C2222   1.340       .  A
N2196      N2198   1.313       .  A
N2196     Co2212   2.068       .  S
N2197      C2211   1.361       .  A
N2198      N2226   1.317       .  A
N2198     Co2216   2.058       .  S
H2199      C2222   1.080       .  S
H2200      C2217   1.082       .  S
N2202     Co2216   2.063       .  S
N2203      N2215   1.311       .  A
N2203      N2219   1.322       .  A
N2203     Co2212   2.021       .  S
C2204      N2208   1.373       .  A
C2204      C2218   1.435       .  S
C2204      C2812   1.496       .  S
C2205      C2224   1.458       .  S
C2205      H2209   1.081       .  S
N2206      C2217   1.333       .  A
N2206     Co2216   2.061       .  S
C2210      N2226   1.347       .  A
C2210      C2222   1.458       .  S
C2210      C2633   1.458       .  S
Co2212    Cl2223   2.418       .  S
N2213      C2224   1.350       .  A
C2214      C2941   1.492       .  S
Co2216    Cl2223   2.455       .  S
C2224      C2689   1.475       .  S
C2227      N2245   1.331       .  A
C2227      C2264   1.493       .  S
C2227      C4887   1.492       .  S
N2228      N2245   1.316       .  A
N2228      N2250   1.325       .  A
N2228     Co2265   2.033       .  S
C2229      N2254   1.328       .  A
C2229      C2267   1.433       .  S
C2229      H2274   1.082       .  S
H2230      C2271   1.081       .  S
C2231      N2255   1.339   1_554  A
C2231      C2235   1.463   1_554  S
C2231      H2260   1.080       .  S
Co2232     N2250   2.185       .  S
Co2232     N2240   2.175       .  S
Co2232     N2272   2.173       .  S
Co2232     N2248   2.177       .  S
Co2232    Cl2276   2.469       .  S
N2233      C2271   1.323       .  A
N2233      N2240   1.322       .  A
N2233     Co2234   2.030       .  S
Co2234     N2237   2.059       .  S
Co2234     N2254   2.036       .  S
Co2234     N2241   2.063       .  S
Co2234    Cl2276   2.428       .  S
C2235      N2273   1.348       .  A
C2235      C2577   1.475   1_556  S
N2236      N2243   1.313       .  A
N2236      N2266   1.313       .  A
N2236     Co2269   2.046       .  S
N2237      N2255   1.313       .  A
N2237      N2273   1.322       .  A
N2238      C2267   1.373       .  A
N2238      N2248   1.340       .  A
H2239      C2264   1.081       .  S
N2240      N2261   1.341       .  A
N2241      N2259   1.312       .  A
N2241      N2246   1.322       .  A
C2242      N2246   1.349       .  A
C2242      C2270   1.455       .  S
C2242      C3400   1.459   1_556  S
N2243      C2258   1.344       .  A
N2243     Co2265   2.072       .  S
C2244      N2272   1.364       .  A
C2244      C2247   1.492       .  S
C2244      H2278   1.081       .  S
C2247      N2268   1.329       .  A
C2247      C4509   1.487       .  S
N2248      N2254   1.323       .  A
N2249      C2275   1.340       .  A
N2249      N2251   1.312       .  A
N2249     Co2265   2.067       .  S
N2250      C2264   1.364       .  A
N2251      N2279   1.319       .  A
N2251     Co2269   2.060       .  S
H2252      C2275   1.080       .  S
H2253      C2270   1.082   1_554  S
N2255     Co2269   2.075       .  S
N2256      N2268   1.313       .  A
N2256      N2272   1.324       .  A
N2256     Co2265   2.032       .  S
C2257      N2261   1.374       .  A
C2257      C2271   1.437       .  S
C2257      C4761   1.500       .  S
C2258      C2277   1.466       .  S
C2258      H2262   1.081       .  S
N2259      C2270   1.331       .  A
N2259     Co2269   2.050       .  S
C2263      N2279   1.349       .  A
C2263      C2275   1.462       .  S
C2263      C3263   1.474   1_556  S
Co2265    Cl2276   2.432       .  S
N2266      C2277   1.342       .  A
C2267      C4593   1.492       .  S
Co2269    Cl2276   2.455       .  S
C2277      C2801   1.474   1_556  S
C2280      N2298   1.353       .  A
C2280      C2317   1.460       .  S
C2280      C2871   1.481   1_565  S
N2281      N2298   1.326       .  A
N2281      N2303   1.313       .  A
N2281     Co2318   2.074       .  S
C2282      N2307   1.341       .  A
C2282      C2320   1.461       .  S
C2282      H2327   1.081       .  S
H2283      C2324   1.081       .  S
C2284      N2308   1.361       .  A
C2284      C2288   1.490       .  S
C2284      H2313   1.081       .  S
Co2285     N2303   2.051       .  S
Co2285     N2293   2.069       .  S
Co2285     N2325   2.069       .  S
Co2285     N2301   2.059       .  S
Co2285    Cl2329   2.453       .  S
N2286      C2324   1.339       .  A
N2286      N2293   1.314       .  A
N2286     Co2287   2.063       .  S
Co2287     N2290   2.043       .  S
Co2287     N2307   2.072       .  S
Co2287     N2294   2.032       .  S
Co2287    Cl2329   2.440       .  S
C2288      N2326   1.336       .  A
C2288      C5111   1.497       .  S
N2289      N2296   1.323       .  A
N2289      N2319   1.338       .  A
N2289     Co2322   2.169       .  S
N2290      N2308   1.323       .  A
N2290      N2326   1.316       .  A
N2291      C2320   1.347       .  A
N2291      N2301   1.318       .  A
H2292      C2317   1.080   1_545  S
N2293      N2314   1.321       .  A
N2294      N2312   1.324       .  A
N2294      N2299   1.315       .  A
C2295      N2299   1.330       .  A
C2295      C2323   1.494       .  S
C2295      C3753   1.491       .  S
N2296      C2311   1.329       .  A
N2296     Co2318   2.040       .  S
C2297      N2325   1.336       .  A
C2297      C2300   1.461       .  S
C2297      H2331   1.081   1_565  S
C2300      N2321   1.349       .  A
C2300      C3711   1.472   1_565  S
N2301      N2307   1.314       .  A
N2302      C2328   1.327       .  A
N2302      N2304   1.323       .  A
N2302     Co2318   2.038       .  S
N2303      C2317   1.327       .  A
N2304      N2332   1.340       .  A
N2304     Co2322   2.168       .  S
H2305      C2328   1.082       .  S
H2306      C2323   1.081       .  S
N2308     Co2322   2.165       .  S
N2309      N2321   1.323       .  A
N2309      N2325   1.315       .  A
N2309     Co2318   2.069       .  S
C2310      N2314   1.348       .  A
C2310      C2324   1.458       .  S
C2310      C3291   1.469   1_565  S
C2311      C2330   1.438       .  S
C2311      H2315   1.082       .  S
N2312      C2323   1.365       .  A
N2312     Co2322   2.180       .  S
C2316      N2332   1.370       .  A
C2316      C2328   1.432       .  S
C2316      C3904   1.484       .  S
Co2318    Cl2329   2.440       .  S
N2319      C2330   1.370       .  A
C2320      C2560   1.469       .  S
Co2322    Cl2329   2.462       .  S
C2330      C5220   1.492       .  S
C2333      N2351   1.347       .  A
C2333      C2370   1.457       .  S
C2333      C3512   1.458   1_556  S
N2334      N2351   1.323       .  A
N2334      N2356   1.313       .  A
N2334     Co2371   2.061       .  S
C2335      N2360   1.339       .  A
C2335      C2373   1.463       .  S
C2335      H2380   1.079       .  S
H2336      C2377   1.082       .  S
C2337      N2361   1.365       .  A
C2337      C2341   1.495       .  S
C2337      H2366   1.081       .  S
Co2338     N2356   2.063       .  S
Co2338     N2346   2.049       .  S
Co2338     N2378   2.051       .  S
Co2338     N2354   2.061       .  S
Co2338    Cl2382   2.448       .  S
N2339      C2377   1.342       .  A
N2339      N2346   1.312       .  A
N2339     Co2340   2.064       .  S
Co2340     N2343   2.033       .  S
Co2340     N2360   2.062       .  S
Co2340     N2347   2.030       .  S
Co2340    Cl2382   2.433       .  S
C2341      N2379   1.332       .  A
C2341      C5013   1.496       .  S
N2342      N2349   1.324       .  A
N2342      N2372   1.341       .  A
N2342     Co2375   2.175       .  S
N2343      N2361   1.325       .  A
N2343      N2379   1.316       .  A
N2344      C2373   1.349       .  A
N2344      N2354   1.319       .  A
H2345      C2370   1.082   1_554  S
N2346      N2367   1.313       .  A
N2347      N2365   1.323       .  A
N2347      N2352   1.312       .  A
C2348      N2352   1.330       .  A
C2348      C2376   1.498       .  S
C2348      C4383   1.499       .  S
N2349      C2364   1.327       .  A
N2349     Co2371   2.039       .  S
C2350      N2378   1.331       .  A
C2350      C2353   1.454       .  S
C2350      H2384   1.082   1_556  S
C2353      N2374   1.351       .  A
C2353      C2546   1.462   1_556  S
N2354      N2360   1.311       .  A
N2355      C2381   1.325       .  A
N2355      N2357   1.324       .  A
N2355     Co2371   2.030       .  S
N2356      C2370   1.335       .  A
N2357      N2385   1.343       .  A
N2357     Co2375   2.187       .  S
H2358      C2381   1.082       .  S
H2359      C2376   1.081       .  S
N2361     Co2375   2.186       .  S
N2362      N2374   1.324       .  A
N2362      N2378   1.312       .  A
N2362     Co2371   2.074       .  S
C2363      N2367   1.344       .  A
C2363      C2377   1.461       .  S
C2363      C2829   1.467   1_556  S
C2364      C2383   1.431       .  S
C2364      H2368   1.081       .  S
N2365      C2376   1.367       .  A
N2365     Co2375   2.178       .  S
C2369      N2385   1.374       .  A
C2369      C2381   1.429       .  S
C2369      C4257   1.492       .  S
Co2371    Cl2382   2.433       .  S
N2372      C2383   1.371       .  A
C2373      C3137   1.477   1_556  S
Co2375    Cl2382   2.468       .  S
C2383      C5097   1.487       .  S
C2386      N2404   1.334       .  A
C2386      C2423   1.487       .  S
C2386      C4310   1.488       .  S
N2387      N2404   1.318       .  A
N2387      N2409   1.325       .  A
N2387     Co2424   2.039       .  S
C2388      N2413   1.322       .  A
C2388      C2426   1.428       .  S
C2388      H2433   1.081       .  S
H2389      C2430   1.081       .  S
C2390      N2414   1.333       .  A
C2390      C2394   1.455       .  S
C2390      H2419   1.080   1_655  S
Co2391     N2409   2.172       .  S
Co2391     N2399   2.182       .  S
Co2391     N2431   2.172       .  S
Co2391     N2407   2.175       .  S
Co2391    Cl2435   2.469       .  S
N2392      C2430   1.323       .  A
N2392      N2399   1.321       .  A
N2392     Co2393   2.026       .  S
Co2393     N2396   2.058       .  S
Co2393     N2413   2.021       .  S
Co2393     N2400   2.069       .  S
Co2393    Cl2435   2.434       .  S
C2394      N2432   1.347       .  A
C2394      C2549   1.459       .  S
N2395      N2402   1.313       .  A
N2395      N2425   1.310       .  A
N2395     Co2428   2.046       .  S
N2396      N2414   1.313       .  A
N2396      N2432   1.323       .  A
N2397      C2426   1.373       .  A
N2397      N2407   1.342       .  A
H2398      C2423   1.081       .  S
N2399      N2420   1.344       .  A
N2400      N2418   1.312       .  A
N2400      N2405   1.323       .  A
C2401      N2405   1.348       .  A
C2401      C2429   1.455       .  S
C2401      C3540   1.456       .  S
N2402      C2417   1.347       .  A
N2402     Co2424   2.074       .  S
C2403      N2431   1.361       .  A
C2403      C2406   1.490       .  S
C2403      H2437   1.081       .  S
C2406      N2427   1.332       .  A
C2406      C4100   1.488       .  S
N2407      N2413   1.321       .  A
N2408      C2434   1.341       .  A
N2408      N2410   1.314       .  A
N2408     Co2424   2.073       .  S
N2409      C2423   1.360       .  A
N2410      N2438   1.316       .  A
N2410     Co2428   2.052       .  S
H2411      C2434   1.082       .  S
H2412      C2429   1.082       .  S
N2414     Co2428   2.062       .  S
N2415      N2427   1.316       .  A
N2415      N2431   1.325       .  A
N2415     Co2424   2.035       .  S
C2416      N2420   1.375       .  A
C2416      C2430   1.432       .  S
C2416      C4271   1.498       .  S
C2417      C2436   1.468       .  S
C2417      H2421   1.081       .  S
N2418      C2429   1.333       .  A
N2418     Co2428   2.053       .  S
C2422      N2438   1.345       .  A
C2422      C2434   1.460       .  S
C2422      C3484   1.459       .  S
Co2424    Cl2435   2.447       .  S
N2425      C2436   1.340       .  A
C2426      C4184   1.488       .  S
Co2428    Cl2435   2.430       .  S
C2436      C3148   1.475   1_655  S
C2439      N2457   1.336       .  A
C2439      C2476   1.485       .  S
C2439      C4719   1.488       .  S
N2440      N2457   1.318       .  A
N2440      N2462   1.325       .  A
N2440     Co2477   2.047       .  S
C2441      N2466   1.324       .  A
C2441      C2479   1.430       .  S
C2441      H2486   1.081       .  S
H2442      C2483   1.081       .  S
C2443      N2467   1.329       .  A
C2443      C2447   1.453       .  S
C2443      H2472   1.082   1_655  S
Co2444     N2462   2.161       .  S
Co2444     N2452   2.171       .  S
Co2444     N2484   2.178       .  S
Co2444     N2460   2.178       .  S
Co2444    Cl2488   2.464       .  S
N2445      C2483   1.326       .  A
N2445      N2452   1.322       .  A
N2445     Co2446   2.032       .  S
Co2446     N2449   2.062       .  S
Co2446     N2466   2.032       .  S
Co2446     N2453   2.063       .  S
Co2446    Cl2488   2.434       .  S
C2447      N2485   1.348       .  A
C2447      C3316   1.457       .  S
N2448      N2455   1.313       .  A
N2448      N2478   1.315       .  A
N2448     Co2481   2.056       .  S
N2449      N2467   1.313       .  A
N2449      N2485   1.323       .  A
N2450      C2479   1.374       .  A
N2450      N2460   1.342       .  A
H2451      C2476   1.081       .  S
N2452      N2473   1.341       .  A
N2453      N2471   1.314       .  A
N2453      N2458   1.322       .  A
C2454      N2458   1.346       .  A
C2454      C2482   1.459       .  S
C2454      C2563   1.469       .  S
N2455      C2470   1.342       .  A
N2455     Co2477   2.059       .  S
C2456      N2484   1.366       .  A
C2456      C2459   1.501       .  S
C2456      H2490   1.081       .  S
C2459      N2480   1.329       .  A
C2459      C3823   1.503       .  S
N2460      N2466   1.323       .  A
N2461      C2487   1.339       .  A
N2461      N2463   1.314       .  A
N2461     Co2477   2.075       .  S
N2462      C2476   1.358       .  A
N2463      N2491   1.320       .  A
N2463     Co2481   2.057       .  S
H2464      C2487   1.081       .  S
H2465      C2482   1.081   1_455  S
N2467     Co2481   2.051       .  S
N2468      N2480   1.310       .  A
N2468      N2484   1.322       .  A
N2468     Co2477   2.020       .  S
C2469      N2473   1.370       .  A
C2469      C2483   1.432       .  S
C2469      C4607   1.487       .  S
C2470      C2489   1.458       .  S
C2470      H2474   1.082       .  S
N2471      C2482   1.336       .  A
N2471     Co2481   2.063       .  S
C2475      N2491   1.347       .  A
C2475      C2487   1.461       .  S
C2475      C3697   1.466       .  S
Co2477    Cl2488   2.432       .  S
N2478      C2489   1.344       .  A
C2479      C3767   1.492       .  S
Co2481    Cl2488   2.450       .  S
C2489      C3204   1.461   1_655  S
C2492      N2510   1.349       .  A
C2492      C2529   1.457       .  S
C2492      C2787   1.463   1_565  S
N2493      N2510   1.323       .  A
N2493      N2515   1.313       .  A
N2493     Co2530   2.066       .  S
C2494      N2519   1.341       .  A
C2494      C2532   1.457       .  S
C2494      H2539   1.081       .  S
H2495      C2536   1.081       .  S
C2496      N2520   1.363       .  A
C2496      C2500   1.492       .  S
C2496      H2525   1.081       .  S
Co2497     N2515   2.054       .  S
Co2497     N2505   2.063       .  S
Co2497     N2537   2.064       .  S
Co2497     N2513   2.053       .  S
Co2497    Cl2541   2.444       .  S
N2498      C2536   1.341       .  A
N2498      N2505   1.314       .  A
N2498     Co2499   2.071       .  S
Co2499     N2502   2.034       .  S
Co2499     N2519   2.069       .  S
Co2499     N2506   2.033       .  S
Co2499    Cl2541   2.436       .  S
C2500      N2538   1.331       .  A
C2500      C4772   1.490       .  S
N2501      N2508   1.320       .  A
N2501      N2531   1.341       .  A
N2501     Co2534   2.177       .  S
N2502      N2520   1.326       .  A
N2502      N2538   1.316       .  A
N2503      C2532   1.345       .  A
N2503      N2513   1.316       .  A
H2504      C2529   1.082   1_545  S
N2505      N2526   1.319       .  A
N2506      N2524   1.323       .  A
N2506      N2511   1.315       .  A
C2507      N2511   1.332       .  A
C2507      C2535   1.490       .  S
C2507      C4215   1.489       .  S
N2508      C2523   1.323       .  A
N2508     Co2530   2.028       .  S
C2509      N2537   1.336       .  A
C2509      C2512   1.460       .  S
C2509      H2543   1.081   1_565  S
C2512      N2533   1.349       .  A
C2512      C3624   1.470   1_565  S
N2513      N2519   1.314       .  A
N2514      C2540   1.328       .  A
N2514      N2516   1.322       .  A
N2514     Co2530   2.041       .  S
N2515      C2529   1.331       .  A
N2516      N2544   1.340       .  A
N2516     Co2534   2.163       .  S
H2517      C2540   1.082       .  S
H2518      C2535   1.082       .  S
N2520     Co2534   2.179       .  S
N2521      N2533   1.322       .  A
N2521      N2537   1.313       .  A
N2521     Co2530   2.063       .  S
C2522      N2526   1.347       .  A
C2522      C2536   1.462       .  S
C2522      C2574   1.472   1_565  S
C2523      C2542   1.439       .  S
C2523      H2527   1.078       .  S
N2524      C2535   1.359       .  A
N2524     Co2534   2.161       .  S
C2528      N2544   1.370       .  A
C2528      C2540   1.435       .  S
C2528      C4005   1.489       .  S
Co2530    Cl2541   2.427       .  S
N2531      C2542   1.376       .  A
C2532      C3414   1.456       .  S
Co2534    Cl2541   2.477       .  S
C2542      C4814   1.504       .  S
C2545      H2552   1.084   1_554  S
C2545      C2546   1.401       .  A
C2545      C2550   1.403   1_455  A
C2546      C2547   1.413       .  A
C2547      C2548   1.384       .  A
C2547      N2554   1.432       .  S
C2548      H2553   1.085       .  S
C2548      C2549   1.396   1_455  A
C2549      C2550   1.416       .  A
C2550      N2551   1.438       .  S
N2551      H2555   1.046       .  S
N2551      H2556   1.043       .  S
N2554      H2557   1.044       .  S
N2554      H2558   1.043       .  S
C2559      H2566   1.083       .  S
C2559      C2560   1.402       .  A
C2559      C2564   1.404   1_465  A
C2560      C2561   1.412   1_565  A
C2561      C2562   1.390       .  A
C2561      N2568   1.431       .  S
C2562      H2567   1.084       .  S
C2562      C2563   1.399   1_455  A
C2563      C2564   1.413       .  A
C2564      N2565   1.438       .  S
N2565      H2569   1.046       .  S
N2565      H2570   1.046       .  S
N2568      H2571   1.046   1_545  S
N2568      H2572   1.043       .  S
C2573      H2580   1.084       .  S
C2573      C2574   1.401       .  A
C2573      C2578   1.400       .  A
C2574      C2575   1.412       .  A
C2575      C2576   1.404       .  A
C2575      N2582   1.437   1_545  S
C2576      H2581   1.083   1_554  S
C2576      C2577   1.404       .  A
C2577      C2578   1.408       .  A
C2578      N2579   1.435       .  S
N2579      H2583   1.046       .  S
N2579      H2584   1.045       .  S
N2582      H2585   1.046       .  S
N2582      H2586   1.046       .  S
C2587      H2594   1.084       .  S
C2587      C2588   1.394       .  A
C2587      C2592   1.405       .  A
C2588      C2589   1.433       .  A
C2589      C2590   1.411       .  A
C2589      N2596   1.438       .  S
C2590      H2595   1.083       .  S
C2590      C2591   1.393       .  A
C2591      C2592   1.434       .  A
C2592      N2593   1.433       .  S
N2593      H2597   1.043       .  S
N2593      H2598   1.046       .  S
N2596      H2599   1.046       .  S
N2596      H2600   1.046       .  S
C2601      H2608   1.085       .  S
C2601      C2602   1.399       .  A
C2601      C2606   1.394       .  A
C2602      C2603   1.413       .  A
C2603      C2604   1.402       .  A
C2603      N2610   1.438       .  S
C2604      H2609   1.084       .  S
C2604      C2605   1.401       .  A
C2605      C2606   1.414       .  A
C2606      N2607   1.439       .  S
N2607      H2611   1.046       .  S
N2607      H2612   1.043       .  S
N2610      H2613   1.044       .  S
N2610      H2614   1.046       .  S
C2615      H2622   1.084       .  S
C2615      C2616   1.415       .  A
C2615      C2620   1.408       .  A
C2616      C2617   1.416       .  A
C2617      C2618   1.414       .  A
C2617      N2624   1.437       .  S
C2618      H2623   1.084       .  S
C2618      C2619   1.415       .  A
C2619      C2620   1.414       .  A
C2620      N2621   1.438       .  S
N2621      H2625   1.046       .  S
N2621      H2626   1.042       .  S
N2624      H2627   1.041       .  S
N2624      H2628   1.045       .  S
C2629      H2636   1.083       .  S
C2629      C2630   1.402       .  A
C2629      C2634   1.403       .  A
C2630      C2631   1.410       .  A
C2631      C2632   1.383       .  A
C2631      N2638   1.433       .  S
C2632      H2637   1.085       .  S
C2632      C2633   1.399       .  A
C2633      C2634   1.414       .  A
C2634      N2635   1.438       .  S
N2635      H2639   1.046       .  S
N2635      H2640   1.043       .  S
N2638      H2641   1.045       .  S
N2638      H2642   1.043       .  S
C2643      H2650   1.084       .  S
C2643      C2644   1.401       .  A
C2643      C2648   1.407       .  A
C2644      C2645   1.424       .  A
C2645      C2646   1.416       .  A
C2645      N2652   1.438       .  S
C2646      H2651   1.084       .  S
C2646      C2647   1.405       .  A
C2647      C2648   1.424       .  A
C2648      N2649   1.438       .  S
N2649      H2653   1.045       .  S
N2649      H2654   1.044       .  S
N2652      H2655   1.044       .  S
N2652      H2656   1.046       .  S
C2657      H2664   1.084       .  S
C2657      C2658   1.401       .  A
C2657      C2662   1.397       .  A
C2658      C2659   1.413       .  A
C2659      C2660   1.397       .  A
C2659      N2666   1.438       .  S
C2660      H2665   1.084       .  S
C2660      C2661   1.399       .  A
C2661      C2662   1.409       .  A
C2662      N2663   1.438       .  S
N2663      H2667   1.046       .  S
N2663      H2668   1.044       .  S
N2666      H2669   1.044       .  S
N2666      H2670   1.045       .  S
C2671      H2678   1.084       .  S
C2671      C2672   1.402       .  A
C2671      C2676   1.402       .  A
C2672      C2673   1.412       .  A
C2673      C2674   1.383       .  A
C2673      N2680   1.434       .  S
C2674      H2679   1.085       .  S
C2674      C2675   1.399       .  A
C2675      C2676   1.413       .  A
C2676      N2677   1.438       .  S
N2677      H2681   1.046       .  S
N2677      H2682   1.043       .  S
N2680      H2683   1.046       .  S
N2680      H2684   1.044       .  S
C2685      H2692   1.084       .  S
C2685      C2686   1.401       .  A
C2685      C2690   1.394       .  A
C2686      C2687   1.412       .  A
C2687      C2688   1.404       .  A
C2687      N2694   1.436       .  S
C2688      H2693   1.082       .  S
C2688      C2689   1.406       .  A
C2689      C2690   1.410       .  A
C2690      N2691   1.435       .  S
N2691      H2695   1.046       .  S
N2691      H2696   1.045       .  S
N2694      H2697   1.045       .  S
N2694      H2698   1.046       .  S
C2699      H2706   1.085       .  S
C2699      C2700   1.400       .  A
C2699      C2704   1.387       .  A
C2700      C2701   1.415       .  A
C2701      C2702   1.403       .  A
C2701      N2708   1.436       .  S
C2702      H2707   1.084       .  S
C2702      C2703   1.401       .  A
C2703      C2704   1.411       .  A
C2704      N2705   1.433       .  S
N2705      H2709   1.043       .  S
N2705      H2710   1.045       .  S
N2708      H2711   1.043       .  S
N2708      H2712   1.045       .  S
C2713      H2720   1.083       .  S
C2713      C2714   1.407       .  A
C2713      C2718   1.408       .  A
C2714      C2715   1.410       .  A
C2715      C2716   1.392       .  A
C2715      N2722   1.430       .  S
C2716      H2721   1.084       .  S
C2716      C2717   1.401       .  A
C2717      C2718   1.414       .  A
C2718      N2719   1.435       .  S
N2719      H2723   1.046       .  S
N2719      H2724   1.046       .  S
N2722      H2725   1.046       .  S
N2722      H2726   1.045       .  S
C2727      H2734   1.084       .  S
C2727      C2728   1.401       .  A
C2727      C2732   1.401       .  A
C2728      C2729   1.413       .  A
C2729      C2730   1.395       .  A
C2729      N2736   1.438       .  S
C2730      H2735   1.084       .  S
C2730      C2731   1.401       .  A
C2731      C2732   1.413       .  A
C2732      N2733   1.438       .  S
N2733      H2737   1.046       .  S
N2733      H2738   1.046       .  S
N2736      H2739   1.043       .  S
N2736      H2740   1.046       .  S
C2741      H2748   1.084       .  S
C2741      C2742   1.399       .  A
C2741      C2746   1.398       .  A
C2742      C2743   1.413       .  A
C2743      C2744   1.388       .  A
C2743      N2750   1.439       .  S
C2744      H2749   1.085       .  S
C2744      C2745   1.397       .  A
C2745      C2746   1.411       .  A
C2746      N2747   1.438       .  S
N2747      H2751   1.046       .  S
N2747      H2752   1.044       .  S
N2750      H2753   1.043       .  S
N2750      H2754   1.045       .  S
C2755      H2762   1.084       .  S
C2755      C2756   1.400       .  A
C2755      C2760   1.398       .  A
C2756      C2757   1.408       .  A
C2757      C2758   1.402       .  A
C2757      N2764   1.438       .  S
C2758      H2763   1.084       .  S
C2758      C2759   1.400       .  A
C2759      C2760   1.409       .  A
C2760      N2761   1.438       .  S
N2761      H2765   1.046       .  S
N2761      H2766   1.044       .  S
N2764      H2767   1.044       .  S
N2764      H2768   1.046       .  S
C2769      H2776   1.083       .  S
C2769      C2770   1.419       .  A
C2769      C2774   1.412       .  A
C2770      C2771   1.401       .  A
C2771      C2772   1.410       .  A
C2771      N2778   1.437       .  S
C2772      H2777   1.082       .  S
C2772      C2773   1.422       .  A
C2773      C2774   1.404       .  A
C2774      N2775   1.436       .  S
N2775      H2779   1.046       .  S
N2775      H2780   1.046       .  S
N2778      H2781   1.045       .  S
N2778      H2782   1.046       .  S
C2783      H2790   1.084       .  S
C2783      C2784   1.402       .  A
C2783      C2788   1.404       .  A
C2784      C2785   1.408       .  A
C2785      C2786   1.385       .  A
C2785      N2792   1.434       .  S
C2786      H2791   1.084       .  S
C2786      C2787   1.399       .  A
C2787      C2788   1.417       .  A
C2788      N2789   1.438   1_545  S
N2789      H2793   1.046       .  S
N2789      H2794   1.043       .  S
N2792      H2795   1.046       .  S
N2792      H2796   1.046       .  S
C2797      H2804   1.081       .  S
C2797      C2798   1.397       .  A
C2797      C2802   1.390       .  A
C2798      C2799   1.413       .  A
C2799      C2800   1.407       .  A
C2799      N2806   1.437       .  S
C2800      H2805   1.082   1_554  S
C2800      C2801   1.404       .  A
C2801      C2802   1.415       .  A
C2802      N2803   1.437       .  S
N2803      H2807   1.045       .  S
N2803      H2808   1.046       .  S
N2806      H2809   1.046       .  S
N2806      H2810   1.046       .  S
C2811      H2818   1.082       .  S
C2811      C2812   1.417       .  A
C2811      C2816   1.412       .  A
C2812      C2813   1.402       .  A
C2813      C2814   1.411       .  A
C2813      N2820   1.438       .  S
C2814      H2819   1.082       .  S
C2814      C2815   1.421       .  A
C2815      C2816   1.405       .  A
C2816      N2817   1.436       .  S
N2817      H2821   1.046       .  S
N2817      H2822   1.046       .  S
N2820      H2823   1.046       .  S
N2820      H2824   1.046       .  S
C2825      H2832   1.083       .  S
C2825      C2826   1.398       .  A
C2825      C2830   1.386       .  A
C2826      C2827   1.408       .  A
C2827      C2828   1.409       .  A
C2827      N2834   1.437       .  S
C2828      H2833   1.083   1_554  S
C2828      C2829   1.405       .  A
C2829      C2830   1.414       .  A
C2830      N2831   1.440       .  S
N2831      H2835   1.046       .  S
N2831      H2836   1.046       .  S
N2834      H2837   1.045       .  S
N2834      H2838   1.046   1_554  S
C2839      H2846   1.084       .  S
C2839      C2840   1.406       .  A
C2839      C2844   1.415       .  A
C2840      C2841   1.421       .  A
C2841      C2842   1.409       .  A
C2841      N2848   1.440       .  S
C2842      H2847   1.084       .  S
C2842      C2843   1.405       .  A
C2843      C2844   1.421       .  A
C2844      N2845   1.438       .  S
N2845      H2849   1.046       .  S
N2845      H2850   1.044       .  S
N2848      H2851   1.044       .  S
N2848      H2852   1.046       .  S
C2853      H2860   1.084       .  S
C2853      C2854   1.392       .  A
C2853      C2858   1.404       .  A
C2854      C2855   1.429       .  A
C2855      C2856   1.412       .  A
C2855      N2862   1.437       .  S
C2856      H2861   1.083       .  S
C2856      C2857   1.395       .  A
C2857      C2858   1.436       .  A
C2858      N2859   1.431       .  S
N2859      H2863   1.042       .  S
N2859      H2864   1.043       .  S
N2862      H2865   1.046       .  S
N2862      H2866   1.046       .  S
C2867      H2874   1.082       .  S
C2867      C2868   1.406       .  A
C2867      C2872   1.410       .  A
C2868      C2869   1.415       .  A
C2869      C2870   1.389       .  A
C2869      N2876   1.440       .  S
C2870      H2875   1.078       .  S
C2870      C2871   1.401       .  A
C2871      C2872   1.415       .  A
C2872      N2873   1.437   1_545  S
N2873      H2877   1.046       .  S
N2873      H2878   1.045       .  S
N2876      H2879   1.045       .  S
N2876      H2880   1.046       .  S
C2881      H2888   1.084       .  S
C2881      C2882   1.402       .  A
C2881      C2886   1.402       .  A
C2882      C2883   1.407       .  A
C2883      C2884   1.387       .  A
C2883      N2890   1.439       .  S
C2884      H2889   1.084       .  S
C2884      C2885   1.400       .  A
C2885      C2886   1.415       .  A
C2886      N2887   1.438       .  S
N2887      H2891   1.045       .  S
N2887      H2892   1.042       .  S
N2890      H2893   1.046       .  S
N2890      H2894   1.046       .  S
C2895      H2902   1.082       .  S
C2895      C2896   1.404       .  A
C2895      C2900   1.398       .  A
C2896      C2897   1.419       .  A
C2897      C2898   1.399       .  A
C2897      N2904   1.432       .  S
C2898      H2903   1.083       .  S
C2898      C2899   1.402       .  A
C2899      C2900   1.410       .  A
C2900      N2901   1.439       .  S
N2901      H2905   1.046       .  S
N2901      H2906   1.045       .  S
N2904      H2907   1.046       .  S
N2904      H2908   1.044       .  S
C2909      H2916   1.084       .  S
C2909      C2910   1.395       .  A
C2909      C2914   1.408       .  A
C2910      C2911   1.434       .  A
C2911      C2912   1.408       .  A
C2911      N2918   1.436       .  S
C2912      H2917   1.084       .  S
C2912      C2913   1.395       .  A
C2913      C2914   1.433       .  A
C2914      N2915   1.436       .  S
N2915      H2919   1.045       .  S
N2915      H2920   1.044       .  S
N2918      H2921   1.044       .  S
N2918      H2922   1.045       .  S
C2923      H2930   1.084       .  S
C2923      C2924   1.401       .  A
C2923      C2928   1.404       .  A
C2924      C2925   1.410       .  A
C2925      C2926   1.390       .  A
C2925      N2932   1.440       .  S
C2926      H2931   1.084       .  S
C2926      C2927   1.398       .  A
C2927      C2928   1.416       .  A
C2928      N2929   1.438       .  S
N2929      H2933   1.046       .  S
N2929      H2934   1.043       .  S
N2932      H2935   1.046       .  S
N2932      H2936   1.046       .  S
C2937      H2944   1.079       .  S
C2937      C2938   1.421       .  A
C2937      C2942   1.408       .  A
C2938      C2939   1.407       .  A
C2939      C2940   1.417       .  A
C2939      N2946   1.436       .  S
C2940      H2945   1.083       .  S
C2940      C2941   1.417       .  A
C2941      C2942   1.400       .  A
C2942      N2943   1.438       .  S
N2943      H2947   1.045       .  S
N2943      H2948   1.046       .  S
N2946      H2949   1.046       .  S
N2946      H2950   1.046       .  S
C2951      H2958   1.085       .  S
C2951      C2952   1.397       .  A
C2951      C2956   1.385       .  A
C2952      C2953   1.416       .  A
C2953      C2954   1.403       .  A
C2953      N2960   1.438       .  S
C2954      H2959   1.084       .  S
C2954      C2955   1.401       .  A
C2955      C2956   1.406       .  A
C2956      N2957   1.434       .  S
N2957      H2961   1.046       .  S
N2957      H2962   1.046       .  S
N2960      H2963   1.043       .  S
N2960      H2964   1.045       .  S
C2965      H2972   1.084       .  S
C2965      C2966   1.402       .  A
C2965      C2970   1.406       .  A
C2966      C2967   1.409       .  A
C2967      C2968   1.387       .  A
C2967      N2974   1.440       .  S
C2968      H2973   1.084       .  S
C2968      C2969   1.398       .  A
C2969      C2970   1.408       .  A
C2970      N2971   1.437       .  S
N2971      H2975   1.046       .  S
N2971      H2976   1.046       .  S
N2974      H2977   1.046       .  S
N2974      H2978   1.046       .  S
C2979      H2986   1.084       .  S
C2979      C2980   1.402       .  A
C2979      C2984   1.413       .  A
C2980      C2981   1.423       .  A
C2981      C2982   1.402       .  A
C2981      N2988   1.432       .  S
C2982      H2987   1.084       .  S
C2982      C2983   1.397       .  A
C2983      C2984   1.427       .  A
C2984      N2985   1.438       .  S
N2985      H2989   1.046       .  S
N2985      H2990   1.044       .  S
N2988      H2991   1.041       .  S
N2988      H2992   1.044       .  S
C2993      H3000   1.084       .  S
C2993      C2994   1.400       .  A
C2993      C2998   1.401       .  A
C2994      C2995   1.406       .  A
C2995      C2996   1.392       .  A
C2995      N3002   1.439       .  S
C2996      H3001   1.085       .  S
C2996      C2997   1.400       .  A
C2997      C2998   1.413       .  A
C2998      N2999   1.438       .  S
N2999      H3003   1.046       .  S
N2999      H3004   1.044       .  S
N3002      H3005   1.046       .  S
N3002      H3006   1.046       .  S
C3007      H3014   1.084       .  S
C3007      C3008   1.412       .  A
C3007      C3012   1.411       .  A
C3008      C3009   1.411       .  A
C3009      C3010   1.401       .  A
C3009      N3016   1.439       .  S
C3010      H3015   1.084       .  S
C3010      C3011   1.414       .  A
C3011      C3012   1.414       .  A
C3012      N3013   1.437       .  S
N3013      H3017   1.046       .  S
N3013      H3018   1.042       .  S
N3016      H3019   1.042       .  S
N3016      H3020   1.046       .  S
C3021      H3028   1.084       .  S
C3021      C3022   1.404       .  A
C3021      C3026   1.406       .  A
C3022      C3023   1.412       .  A
C3023      C3024   1.414       .  A
C3023      N3030   1.437       .  S
C3024      H3029   1.084       .  S
C3024      C3025   1.406       .  A
C3025      C3026   1.412       .  A
C3026      N3027   1.439       .  S
N3027      H3031   1.046       .  S
N3027      H3032   1.045       .  S
N3030      H3033   1.046       .  S
N3030      H3034   1.046       .  S
C3035      H3042   1.084       .  S
C3035      C3036   1.403       .  A
C3035      C3040   1.403       .  A
C3036      C3037   1.411       .  A
C3037      C3038   1.391       .  A
C3037      N3044   1.430       .  S
C3038      H3043   1.084       .  S
C3038      C3039   1.399       .  A
C3039      C3040   1.411       .  A
C3040      N3041   1.437       .  S
N3041      H3045   1.046       .  S
N3041      H3046   1.046       .  S
N3044      H3047   1.045       .  S
N3044      H3048   1.038       .  S
C3049      H3056   1.084       .  S
C3049      C3050   1.400       .  A
C3049      C3054   1.388       .  A
C3050      C3051   1.414       .  A
C3051      C3052   1.401       .  A
C3051      N3058   1.438       .  S
C3052      H3057   1.083       .  S
C3052      C3053   1.401       .  A
C3053      C3054   1.407       .  A
C3054      N3055   1.440       .  S
N3055      H3059   1.046       .  S
N3055      H3060   1.046       .  S
N3058      H3061   1.043       .  S
N3058      H3062   1.045       .  S
C3063      H3070   1.084       .  S
C3063      C3064   1.403       .  A
C3063      C3068   1.399       .  A
C3064      C3065   1.412       .  A
C3065      C3066   1.400       .  A
C3065      N3072   1.430       .  S
C3066      H3071   1.082       .  S
C3066      C3067   1.401       .  A
C3067      C3068   1.412       .  A
C3068      N3069   1.439       .  S
N3069      H3073   1.046       .  S
N3069      H3074   1.046       .  S
N3072      H3075   1.046       .  S
N3072      H3076   1.046       .  S
C3077      H3084   1.077       .  S
C3077      C3078   1.400       .  A
C3077      C3082   1.387       .  A
C3078      C3079   1.412       .  A
C3079      C3080   1.411       .  A
C3079      N3086   1.437       .  S
C3080      H3085   1.082       .  S
C3080      C3081   1.407       .  A
C3081      C3082   1.416       .  A
C3082      N3083   1.440       .  S
N3083      H3087   1.046       .  S
N3083      H3088   1.046       .  S
N3086      H3089   1.046       .  S
N3086      H3090   1.046       .  S
C3091      H3098   1.083       .  S
C3091      C3092   1.403       .  A
C3091      C3096   1.408       .  A
C3092      C3093   1.409       .  A
C3093      C3094   1.394       .  A
C3093      N3100   1.434       .  S
C3094      H3099   1.083       .  S
C3094      C3095   1.402       .  A
C3095      C3096   1.415       .  A
C3096      N3097   1.437       .  S
N3097      H3101   1.046       .  S
N3097      H3102   1.046       .  S
N3100      H3103   1.046       .  S
N3100      H3104   1.045       .  S
C3105      H3112   1.083       .  S
C3105      C3106   1.419       .  A
C3105      C3110   1.415       .  A
C3106      C3107   1.401       .  A
C3107      C3108   1.410       .  A
C3107      N3114   1.437       .  S
C3108      H3113   1.082       .  S
C3108      C3109   1.422       .  A
C3109      C3110   1.404       .  A
C3110      N3111   1.436       .  S
N3111      H3115   1.046       .  S
N3111      H3116   1.046       .  S
N3114      H3117   1.046       .  S
N3114      H3118   1.046       .  S
C3119      H3126   1.085       .  S
C3119      C3120   1.399       .  A
C3119      C3124   1.403       .  A
C3120      C3121   1.423       .  A
C3121      C3122   1.414       .  A
C3121      N3128   1.438       .  S
C3122      H3127   1.084       .  S
C3122      C3123   1.404       .  A
C3123      C3124   1.423       .  A
C3124      N3125   1.438       .  S
N3125      H3129   1.045       .  S
N3125      H3130   1.044       .  S
N3128      H3131   1.044       .  S
N3128      H3132   1.046       .  S
C3133      H3140   1.082       .  S
C3133      C3134   1.402       .  A
C3133      C3138   1.402       .  A
C3134      C3135   1.408       .  A
C3135      C3136   1.398       .  A
C3135      N3142   1.439       .  S
C3136      H3141   1.084       .  S
C3136      C3137   1.404       .  A
C3137      C3138   1.415       .  A
C3138      N3139   1.436   1_554  S
N3139      H3143   1.046       .  S
N3139      H3144   1.045       .  S
N3142      H3145   1.046       .  S
N3142      H3146   1.046       .  S
C3147      H3154   1.083       .  S
C3147      C3148   1.405   1_655  A
C3147      C3152   1.405   1_655  A
C3148      C3149   1.415       .  A
C3149      C3150   1.385       .  A
C3149      N3156   1.440       .  S
C3150      H3155   1.079       .  S
C3150      C3151   1.399       .  A
C3151      C3152   1.418       .  A
C3152      N3153   1.436       .  S
N3153      H3157   1.045       .  S
N3153      H3158   1.043       .  S
N3156      H3159   1.045       .  S
N3156      H3160   1.046       .  S
C3161      H3168   1.084       .  S
C3161      C3162   1.415       .  A
C3161      C3166   1.406       .  A
C3162      C3163   1.417       .  A
C3163      C3164   1.415       .  A
C3163      N3170   1.437       .  S
C3164      H3169   1.084       .  S
C3164      C3165   1.414       .  A
C3165      C3166   1.412       .  A
C3166      N3167   1.439       .  S
N3167      H3171   1.046       .  S
N3167      H3172   1.042       .  S
N3170      H3173   1.042       .  S
N3170      H3174   1.046       .  S
C3175      H3182   1.084       .  S
C3175      C3176   1.398       .  A
C3175      C3180   1.389       .  A
C3176      C3177   1.408       .  A
C3177      C3178   1.406       .  A
C3177      N3184   1.437       .  S
C3178      H3183   1.084       .  S
C3178      C3179   1.401       .  A
C3179      C3180   1.410       .  A
C3180      N3181   1.440       .  S
N3181      H3185   1.046       .  S
N3181      H3186   1.046       .  S
N3184      H3187   1.045       .  S
N3184      H3188   1.046       .  S
C3189      H3196   1.084       .  S
C3189      C3190   1.412       .  A
C3189      C3194   1.409       .  A
C3190      C3191   1.407       .  A
C3191      C3192   1.416       .  A
C3191      N3198   1.437       .  S
C3192      H3197   1.084       .  S
C3192      C3193   1.412       .  A
C3193      C3194   1.405       .  A
C3194      N3195   1.438       .  S
N3195      H3199   1.043       .  S
N3195      H3200   1.046       .  S
N3198      H3201   1.046       .  S
N3198      H3202   1.046       .  S
C3203      H3210   1.084       .  S
C3203      C3204   1.402   1_655  A
C3203      C3208   1.403   1_655  A
C3204      C3205   1.407       .  A
C3205      C3206   1.386       .  A
C3205      N3212   1.434       .  S
C3206      H3211   1.084       .  S
C3206      C3207   1.399       .  A
C3207      C3208   1.417       .  A
C3208      N3209   1.438       .  S
N3209      H3213   1.046   1_455  S
N3209      H3214   1.043       .  S
N3212      H3215   1.046       .  S
N3212      H3216   1.046       .  S
C3217      H3224   1.083       .  S
C3217      C3218   1.401       .  A
C3217      C3222   1.418       .  A
C3218      C3219   1.428       .  A
C3219      C3220   1.408       .  A
C3219      N3226   1.436       .  S
C3220      H3225   1.084       .  S
C3220      C3221   1.391       .  A
C3221      C3222   1.422       .  A
C3222      N3223   1.437       .  S
N3223      H3227   1.046       .  S
N3223      H3228   1.046       .  S
N3226      H3229   1.045       .  S
N3226      H3230   1.045       .  S
C3231      H3238   1.084       .  S
C3231      C3232   1.401       .  A
C3231      C3236   1.406       .  A
C3232      C3233   1.410       .  A
C3233      C3234   1.385       .  A
C3233      N3240   1.434       .  S
C3234      H3239   1.085       .  S
C3234      C3235   1.397       .  A
C3235      C3236   1.407       .  A
C3236      N3237   1.437       .  S
N3237      H3241   1.046       .  S
N3237      H3242   1.046       .  S
N3240      H3243   1.045       .  S
N3240      H3244   1.044       .  S
C3245      H3252   1.085       .  S
C3245      C3246   1.403       .  A
C3245      C3250   1.405       .  A
C3246      C3247   1.420       .  A
C3247      C3248   1.413       .  A
C3247      N3254   1.438       .  S
C3248      H3253   1.084       .  S
C3248      C3249   1.405       .  A
C3249      C3250   1.419       .  A
C3250      N3251   1.439       .  S
N3251      H3255   1.046       .  S
N3251      H3256   1.044       .  S
N3254      H3257   1.044       .  S
N3254      H3258   1.046       .  S
C3259      H3266   1.083       .  S
C3259      C3260   1.401       .  A
C3259      C3264   1.403       .  A
C3260      C3261   1.408       .  A
C3261      C3262   1.398       .  A
C3261      N3268   1.439       .  S
C3262      H3267   1.084       .  S
C3262      C3263   1.403       .  A
C3263      C3264   1.415       .  A
C3264      N3265   1.436   1_554  S
N3265      H3269   1.046       .  S
N3265      H3270   1.046       .  S
N3268      H3271   1.045       .  S
N3268      H3272   1.046       .  S
C3273      H3280   1.084       .  S
C3273      C3274   1.400       .  A
C3273      C3278   1.391       .  A
C3274      C3275   1.415       .  A
C3275      C3276   1.402       .  A
C3275      N3282   1.439       .  S
C3276      H3281   1.083       .  S
C3276      C3277   1.401       .  A
C3277      C3278   1.409       .  A
C3278      N3279   1.439       .  S
N3279      H3283   1.046       .  S
N3279      H3284   1.046       .  S
N3282      H3285   1.043       .  S
N3282      H3286   1.046       .  S
C3287      H3294   1.084       .  S
C3287      C3288   1.402       .  A
C3287      C3292   1.395       .  A
C3288      C3289   1.413       .  A
C3289      C3290   1.403       .  A
C3289      N3296   1.438       .  S
C3290      H3295   1.083   1_545  S
C3290      C3291   1.402       .  A
C3291      C3292   1.413       .  A
C3292      N3293   1.438       .  S
N3293      H3297   1.045       .  S
N3293      H3298   1.043       .  S
N3296      H3299   1.046       .  S
N3296      H3300   1.046       .  S
C3301      H3308   1.084       .  S
C3301      C3302   1.400       .  A
C3301      C3306   1.399       .  A
C3302      C3303   1.415       .  A
C3303      C3304   1.395       .  A
C3303      N3310   1.440       .  S
C3304      H3309   1.085       .  S
C3304      C3305   1.399       .  A
C3305      C3306   1.412       .  A
C3306      N3307   1.439       .  S
N3307      H3311   1.046       .  S
N3307      H3312   1.044       .  S
N3310      H3313   1.042       .  S
N3310      H3314   1.046       .  S
C3315      H3322   1.084       .  S
C3315      C3316   1.403       .  A
C3315      C3320   1.406   1_655  A
C3316      C3317   1.409   1_655  A
C3317      C3318   1.387       .  A
C3317      N3324   1.439       .  S
C3318      H3323   1.084       .  S
C3318      C3319   1.399       .  A
C3319      C3320   1.406       .  A
C3320      N3321   1.437       .  S
N3321      H3325   1.046   1_455  S
N3321      H3326   1.045       .  S
N3324      H3327   1.046       .  S
N3324      H3328   1.046       .  S
C3329      H3336   1.085       .  S
C3329      C3330   1.397       .  A
C3329      C3334   1.385       .  A
C3330      C3331   1.413       .  A
C3331      C3332   1.402       .  A
C3331      N3338   1.438       .  S
C3332      H3337   1.084       .  S
C3332      C3333   1.401       .  A
C3333      C3334   1.412       .  A
C3334      N3335   1.435       .  S
N3335      H3339   1.044       .  S
N3335      H3340   1.045       .  S
N3338      H3341   1.044       .  S
N3338      H3342   1.046       .  S
C3343      H3350   1.084       .  S
C3343      C3344   1.405       .  A
C3343      C3348   1.411       .  A
C3344      C3345   1.411       .  A
C3345      C3346   1.390       .  A
C3345      N3352   1.434       .  S
C3346      H3351   1.083       .  S
C3346      C3347   1.398       .  A
C3347      C3348   1.413       .  A
C3348      N3349   1.438       .  S
N3349      H3353   1.046       .  S
N3349      H3354   1.045       .  S
N3352      H3355   1.046       .  S
N3352      H3356   1.046       .  S
C3357      H3364   1.084       .  S
C3357      C3358   1.404       .  A
C3357      C3362   1.408       .  A
C3358      C3359   1.408       .  A
C3359      C3360   1.389       .  A
C3359      N3366   1.439       .  S
C3360      H3365   1.084       .  S
C3360      C3361   1.400       .  A
C3361      C3362   1.406       .  A
C3362      N3363   1.437       .  S
N3363      H3367   1.046       .  S
N3363      H3368   1.045       .  S
N3366      H3369   1.046       .  S
N3366      H3370   1.046       .  S
C3371      H3378   1.084       .  S
C3371      C3372   1.403       .  A
C3371      C3376   1.394       .  A
C3372      C3373   1.416       .  A
C3373      C3374   1.408       .  A
C3373      N3380   1.435       .  S
C3374      H3379   1.082       .  S
C3374      C3375   1.403       .  A
C3375      C3376   1.410       .  A
C3376      N3377   1.434       .  S
N3377      H3381   1.046       .  S
N3377      H3382   1.046       .  S
N3380      H3383   1.046       .  S
N3380      H3384   1.046       .  S
C3385      H3392   1.082       .  S
C3385      C3386   1.401       .  A
C3385      C3390   1.403       .  A
C3386      C3387   1.411       .  A
C3387      C3388   1.399       .  A
C3387      N3394   1.439       .  S
C3388      H3393   1.082       .  S
C3388      C3389   1.403       .  A
C3389      C3390   1.416       .  A
C3390      N3391   1.438       .  S
N3391      H3395   1.046       .  S
N3391      H3396   1.045       .  S
N3394      H3397   1.046       .  S
N3394      H3398   1.046       .  S
C3399      H3406   1.084   1_554  S
C3399      C3400   1.401       .  A
C3399      C3404   1.405       .  A
C3400      C3401   1.416       .  A
C3401      C3402   1.383       .  A
C3401      N3408   1.434       .  S
C3402      H3407   1.085       .  S
C3402      C3403   1.395       .  A
C3403      C3404   1.407       .  A
C3404      N3405   1.436       .  S
N3405      H3409   1.046       .  S
N3405      H3410   1.045       .  S
N3408      H3411   1.046       .  S
N3408      H3412   1.043       .  S
C3413      H3420   1.084       .  S
C3413      C3414   1.401       .  A
C3413      C3418   1.402   1_565  A
C3414      C3415   1.407   1_565  A
C3415      C3416   1.390       .  A
C3415      N3422   1.440       .  S
C3416      H3421   1.085       .  S
C3416      C3417   1.399       .  A
C3417      C3418   1.414       .  A
C3418      N3419   1.438       .  S
N3419      H3423   1.045   1_545  S
N3419      H3424   1.044       .  S
N3422      H3425   1.046       .  S
N3422      H3426   1.046       .  S
C3427      H3434   1.084       .  S
C3427      C3428   1.413       .  A
C3427      C3432   1.414       .  A
C3428      C3429   1.404       .  A
C3429      C3430   1.410       .  A
C3429      N3436   1.438       .  S
C3430      H3435   1.084       .  S
C3430      C3431   1.414       .  A
C3431      C3432   1.406       .  A
C3432      N3433   1.437       .  S
N3433      H3437   1.046       .  S
N3433      H3438   1.046       .  S
N3436      H3439   1.046       .  S
N3436      H3440   1.045       .  S
C3441      H3448   1.084       .  S
C3441      C3442   1.411       .  A
C3441      C3446   1.410       .  A
C3442      C3443   1.412       .  A
C3443      C3444   1.405       .  A
C3443      N3450   1.439       .  S
C3444      H3449   1.085       .  S
C3444      C3445   1.412       .  A
C3445      C3446   1.416       .  A
C3446      N3447   1.437       .  S
N3447      H3451   1.045       .  S
N3447      H3452   1.041       .  S
N3450      H3453   1.043       .  S
N3450      H3454   1.046       .  S
C3455      H3462   1.084       .  S
C3455      C3456   1.398       .  A
C3455      C3460   1.386       .  A
C3456      C3457   1.417       .  A
C3457      C3458   1.404       .  A
C3457      N3464   1.438       .  S
C3458      H3463   1.084       .  S
C3458      C3459   1.401       .  A
C3459      C3460   1.406       .  A
C3460      N3461   1.434       .  S
N3461      H3465   1.046       .  S
N3461      H3466   1.046       .  S
N3464      H3467   1.043       .  S
N3464      H3468   1.046       .  S
C3469      H3476   1.085       .  S
C3469      C3470   1.398       .  A
C3469      C3474   1.394       .  A
C3470      C3471   1.412       .  A
C3471      C3472   1.400       .  A
C3471      N3478   1.438       .  S
C3472      H3477   1.084       .  S
C3472      C3473   1.400       .  A
C3473      C3474   1.416       .  A
C3474      N3475   1.440       .  S
N3475      H3479   1.045       .  S
N3475      H3480   1.042       .  S
N3478      H3481   1.044       .  S
N3478      H3482   1.045       .  S
C3483      H3490   1.084       .  S
C3483      C3484   1.399       .  A
C3483      C3488   1.402   1_655  A
C3484      C3485   1.409   1_655  A
C3485      C3486   1.392       .  A
C3485      N3492   1.440       .  S
C3486      H3491   1.084       .  S
C3486      C3487   1.399       .  A
C3487      C3488   1.417       .  A
C3488      N3489   1.439       .  S
N3489      H3493   1.046       .  S
N3489      H3494   1.042       .  S
N3492      H3495   1.046       .  S
N3492      H3496   1.046       .  S
C3497      H3504   1.084       .  S
C3497      C3498   1.400       .  A
C3497      C3502   1.402       .  A
C3498      C3499   1.409       .  A
C3499      C3500   1.400       .  A
C3499      N3506   1.438       .  S
C3500      H3505   1.084       .  S
C3500      C3501   1.401       .  A
C3501      C3502   1.409       .  A
C3502      N3503   1.438       .  S
N3503      H3507   1.046       .  S
N3503      H3508   1.044       .  S
N3506      H3509   1.045       .  S
N3506      H3510   1.046       .  S
C3511      H3518   1.084   1_554  S
C3511      C3512   1.400       .  A
C3511      C3516   1.402       .  A
C3512      C3513   1.405       .  A
C3513      C3514   1.393       .  A
C3513      N3520   1.437       .  S
C3514      H3519   1.085       .  S
C3514      C3515   1.399       .  A
C3515      C3516   1.415       .  A
C3516      N3517   1.438       .  S
N3517      H3521   1.046       .  S
N3517      H3522   1.043       .  S
N3520      H3523   1.045       .  S
N3520      H3524   1.046       .  S
C3525      H3532   1.084       .  S
C3525      C3526   1.405       .  A
C3525      C3530   1.407       .  A
C3526      C3527   1.414       .  A
C3527      C3528   1.387       .  A
C3527      N3534   1.440       .  S
C3528      H3533   1.083       .  S
C3528      C3529   1.397       .  A
C3529      C3530   1.409       .  A
C3530      N3531   1.437       .  S
N3531      H3535   1.046       .  S
N3531      H3536   1.045       .  S
N3534      H3537   1.046       .  S
N3534      H3538   1.046       .  S
C3539      H3546   1.084       .  S
C3539      C3540   1.401       .  A
C3539      C3544   1.406   1_655  A
C3540      C3541   1.411   1_655  A
C3541      C3542   1.388       .  A
C3541      N3548   1.434       .  S
C3542      H3547   1.085       .  S
C3542      C3543   1.398       .  A
C3543      C3544   1.406       .  A
C3544      N3545   1.437       .  S
N3545      H3549   1.046   1_455  S
N3545      H3550   1.046       .  S
N3548      H3551   1.045       .  S
N3548      H3552   1.044       .  S
C3553      H3560   1.084       .  S
C3553      C3554   1.407       .  A
C3553      C3558   1.417       .  A
C3554      C3555   1.412       .  A
C3555      C3556   1.412       .  A
C3555      N3562   1.438       .  S
C3556      H3561   1.084       .  S
C3556      C3557   1.406       .  A
C3557      C3558   1.412       .  A
C3558      N3559   1.437       .  S
N3559      H3563   1.046       .  S
N3559      H3564   1.046       .  S
N3562      H3565   1.046       .  S
N3562      H3566   1.046       .  S
C3567      H3574   1.084       .  S
C3567      C3568   1.404       .  A
C3567      C3572   1.408       .  A
C3568      C3569   1.413       .  A
C3569      C3570   1.417       .  A
C3569      N3576   1.437       .  S
C3570      H3575   1.084       .  S
C3570      C3571   1.406       .  A
C3571      C3572   1.413       .  A
C3572      N3573   1.439       .  S
N3573      H3577   1.046       .  S
N3573      H3578   1.044       .  S
N3576      H3579   1.046       .  S
N3576      H3580   1.046       .  S
C3581      H3588   1.084       .  S
C3581      C3582   1.400       .  A
C3581      C3586   1.405       .  A
C3582      C3583   1.409       .  A
C3583      C3584   1.395       .  A
C3583      N3590   1.439       .  S
C3584      H3589   1.084       .  S
C3584      C3585   1.397       .  A
C3585      C3586   1.408       .  A
C3586      N3587   1.436       .  S
N3587      H3591   1.046       .  S
N3587      H3592   1.045       .  S
N3590      H3593   1.045       .  S
N3590      H3594   1.046       .  S
C3595      H3602   1.085       .  S
C3595      C3596   1.397       .  A
C3595      C3600   1.391       .  A
C3596      C3597   1.406       .  A
C3597      C3598   1.403       .  A
C3597      N3604   1.436       .  S
C3598      H3603   1.084       .  S
C3598      C3599   1.400       .  A
C3599      C3600   1.416       .  A
C3600      N3601   1.439       .  S
N3601      H3605   1.046       .  S
N3601      H3606   1.042       .  S
N3604      H3607   1.043       .  S
N3604      H3608   1.046       .  S
C3609      H3616   1.084       .  S
C3609      C3610   1.405       .  A
C3609      C3614   1.411       .  A
C3610      C3611   1.414       .  A
C3611      C3612   1.388       .  A
C3611      N3618   1.440       .  S
C3612      H3617   1.083       .  S
C3612      C3613   1.398       .  A
C3613      C3614   1.410       .  A
C3614      N3615   1.437       .  S
N3615      H3619   1.046       .  S
N3615      H3620   1.046       .  S
N3618      H3621   1.046       .  S
N3618      H3622   1.046       .  S
C3623      H3630   1.083   1_545  S
C3623      C3624   1.403       .  A
C3623      C3628   1.403       .  A
C3624      C3625   1.408       .  A
C3625      C3626   1.399       .  A
C3625      N3632   1.438       .  S
C3626      H3631   1.084       .  S
C3626      C3627   1.402       .  A
C3627      C3628   1.412       .  A
C3628      N3629   1.438       .  S
N3629      H3633   1.046       .  S
N3629      H3634   1.046       .  S
N3632      H3635   1.046   1_545  S
N3632      H3636   1.046       .  S
C3637      H3644   1.083       .  S
C3637      C3638   1.398       .  A
C3637      C3642   1.415       .  A
C3638      C3639   1.431       .  A
C3639      C3640   1.407       .  A
C3639      N3646   1.431       .  S
C3640      H3645   1.084       .  S
C3640      C3641   1.391       .  A
C3641      C3642   1.428       .  A
C3642      N3643   1.437       .  S
N3643      H3647   1.046       .  S
N3643      H3648   1.046       .  S
N3646      H3649   1.046       .  S
N3646      H3650   1.046       .  S
C3651      H3658   1.084       .  S
C3651      C3652   1.412       .  A
C3651      C3656   1.410       .  A
C3652      C3653   1.408       .  A
C3653      C3654   1.417       .  A
C3653      N3660   1.437       .  S
C3654      H3659   1.084       .  S
C3654      C3655   1.413       .  A
C3655      C3656   1.407       .  A
C3656      N3657   1.438       .  S
N3657      H3661   1.046       .  S
N3657      H3662   1.046       .  S
N3660      H3663   1.046       .  S
N3660      H3664   1.046       .  S
C3665      H3672   1.083       .  S
C3665      C3666   1.402       .  A
C3665      C3670   1.403       .  A
C3666      C3667   1.413       .  A
C3667      C3668   1.394       .  A
C3667      N3674   1.438       .  S
C3668      H3673   1.084       .  S
C3668      C3669   1.402       .  A
C3669      C3670   1.413       .  A
C3670      N3671   1.438       .  S
N3671      H3675   1.046       .  S
N3671      H3676   1.046       .  S
N3674      H3677   1.044       .  S
N3674      H3678   1.045       .  S
C3679      H3686   1.084       .  S
C3679      C3680   1.402       .  A
C3679      C3684   1.402       .  A
C3680      C3681   1.411       .  A
C3681      C3682   1.384       .  A
C3681      N3688   1.434       .  S
C3682      H3687   1.085       .  S
C3682      C3683   1.398       .  A
C3683      C3684   1.412       .  A
C3684      N3685   1.438       .  S
N3685      H3689   1.046       .  S
N3685      H3690   1.044       .  S
N3688      H3691   1.046       .  S
N3688      H3692   1.043       .  S
C3693      H3700   1.084       .  S
C3693      C3694   1.399       .  A
C3693      C3698   1.399       .  A
C3694      C3695   1.410       .  A
C3695      C3696   1.399   1_455  A
C3695      N3702   1.439       .  S
C3696      H3701   1.083       .  S
C3696      C3697   1.402       .  A
C3697      C3698   1.416   1_655  A
C3698      N3699   1.440       .  S
N3699      H3703   1.046       .  S
N3699      H3704   1.043   1_455  S
N3702      H3705   1.046       .  S
N3702      H3706   1.046       .  S
C3707      H3714   1.084       .  S
C3707      C3708   1.399       .  A
C3707      C3712   1.394       .  A
C3708      C3709   1.411       .  A
C3709      C3710   1.403       .  A
C3709      N3716   1.438       .  S
C3710      H3715   1.084   1_545  S
C3710      C3711   1.404       .  A
C3711      C3712   1.413       .  A
C3712      N3713   1.435       .  S
N3713      H3717   1.045       .  S
N3713      H3718   1.043   1_545  S
N3716      H3719   1.046       .  S
N3716      H3720   1.046       .  S
C3721      H3728   1.084       .  S
C3721      C3722   1.409       .  A
C3721      C3726   1.415       .  A
C3722      C3723   1.410       .  A
C3723      C3724   1.418       .  A
C3723      N3730   1.437       .  S
C3724      H3729   1.084       .  S
C3724      C3725   1.411       .  A
C3725      C3726   1.412       .  A
C3726      N3727   1.438       .  S
N3727      H3731   1.046       .  S
N3727      H3732   1.046       .  S
N3730      H3733   1.046       .  S
N3730      H3734   1.046       .  S
C3735      H3742   1.083       .  S
C3735      C3736   1.406       .  A
C3735      C3740   1.421       .  A
C3736      C3737   1.419       .  A
C3737      C3738   1.416       .  A
C3737      N3744   1.439       .  S
C3738      H3743   1.084       .  S
C3738      C3739   1.404       .  A
C3739      C3740   1.418       .  A
C3740      N3741   1.437       .  S
N3741      H3745   1.046       .  S
N3741      H3746   1.045       .  S
N3744      H3747   1.044       .  S
N3744      H3748   1.046       .  S
C3749      H3756   1.084       .  S
C3749      C3750   1.407       .  A
C3749      C3754   1.413   1_655  A
C3750      C3751   1.421       .  A
C3751      C3752   1.416   1_655  A
C3751      N3758   1.438       .  S
C3752      H3757   1.084       .  S
C3752      C3753   1.407       .  A
C3753      C3754   1.412       .  A
C3754      N3755   1.438       .  S
N3755      H3759   1.046       .  S
N3755      H3760   1.046       .  S
N3758      H3761   1.044       .  S
N3758      H3762   1.046       .  S
C3763      H3770   1.084       .  S
C3763      C3764   1.400       .  A
C3763      C3768   1.405   1_565  A
C3764      C3765   1.423       .  A
C3765      C3766   1.414   1_565  A
C3765      N3772   1.437       .  S
C3766      H3771   1.084       .  S
C3766      C3767   1.404       .  A
C3767      C3768   1.424       .  A
C3768      N3769   1.439       .  S
N3769      H3773   1.046       .  S
N3769      H3774   1.044       .  S
N3772      H3775   1.044       .  S
N3772      H3776   1.046       .  S
C3777      H3784   1.084       .  S
C3777      C3778   1.414       .  A
C3777      C3782   1.407       .  A
C3778      C3779   1.418       .  A
C3779      C3780   1.413       .  A
C3779      N3786   1.437       .  S
C3780      H3785   1.084       .  S
C3780      C3781   1.411       .  A
C3781      C3782   1.414       .  A
C3782      N3783   1.439       .  S
N3783      H3787   1.046       .  S
N3783      H3788   1.041       .  S
N3786      H3789   1.041       .  S
N3786      H3790   1.045       .  S
C3791      H3798   1.084       .  S
C3791      C3792   1.412       .  A
C3791      C3796   1.413       .  A
C3792      C3793   1.414       .  A
C3793      C3794   1.409       .  A
C3793      N3800   1.438       .  S
C3794      H3799   1.082       .  S
C3794      C3795   1.412       .  A
C3795      C3796   1.416       .  A
C3796      N3797   1.437       .  S
N3797      H3801   1.045       .  S
N3797      H3802   1.042       .  S
N3800      H3803   1.042       .  S
N3800      H3804   1.045       .  S
C3805      H3812   1.080       .  S
C3805      C3806   1.422       .  A
C3805      C3810   1.406   1_655  A
C3806      C3807   1.407       .  A
C3807      C3808   1.421   1_655  A
C3807      N3814   1.436       .  S
C3808      H3813   1.083       .  S
C3808      C3809   1.418       .  A
C3809      C3810   1.400       .  A
C3810      N3811   1.438       .  S
N3811      H3815   1.046       .  S
N3811      H3816   1.046       .  S
N3814      H3817   1.046       .  S
N3814      H3818   1.046       .  S
C3819      H3826   1.084       .  S
C3819      C3820   1.418       .  A
C3819      C3824   1.414       .  A
C3820      C3821   1.401       .  A
C3821      C3822   1.410       .  A
C3821      N3828   1.437       .  S
C3822      H3827   1.082       .  S
C3822      C3823   1.422       .  A
C3823      C3824   1.404       .  A
C3824      N3825   1.436       .  S
N3825      H3829   1.046       .  S
N3825      H3830   1.046       .  S
N3828      H3831   1.046       .  S
N3828      H3832   1.046       .  S
C3833      H3840   1.084       .  S
C3833      C3834   1.401       .  A
C3833      C3838   1.397   1_565  A
C3834      C3835   1.413       .  A
C3835      C3836   1.402   1_565  A
C3835      N3842   1.438       .  S
C3836      H3841   1.083       .  S
C3836      C3837   1.402       .  A
C3837      C3838   1.413       .  A
C3838      N3839   1.439       .  S
N3839      H3843   1.046       .  S
N3839      H3844   1.044       .  S
N3842      H3845   1.046       .  S
N3842      H3846   1.046       .  S
C3847      H3854   1.081       .  S
C3847      C3848   1.412       .  A
C3847      C3852   1.413       .  A
C3848      C3849   1.408       .  A
C3849      C3850   1.415       .  A
C3849      N3856   1.437       .  S
C3850      H3855   1.084       .  S
C3850      C3851   1.413       .  A
C3851      C3852   1.406       .  A
C3852      N3853   1.438       .  S
N3853      H3857   1.044       .  S
N3853      H3858   1.046       .  S
N3856      H3859   1.046       .  S
N3856      H3860   1.046       .  S
C3861      H3868   1.084       .  S
C3861      C3862   1.389       .  A
C3861      C3866   1.408       .  A
C3862      C3863   1.423       .  A
C3863      C3864   1.418       .  A
C3863      N3870   1.437       .  S
C3864      H3869   1.083       .  S
C3864      C3865   1.403       .  A
C3865      C3866   1.433       .  A
C3866      N3867   1.431       .  S
N3867      H3871   1.046       .  S
N3867      H3872   1.043       .  S
N3870      H3873   1.045       .  S
N3870      H3874   1.046       .  S
C3875      H3882   1.084       .  S
C3875      C3876   1.417       .  A
C3875      C3880   1.418   1_565  A
C3876      C3877   1.402       .  A
C3877      C3878   1.410   1_565  A
C3877      N3884   1.438       .  S
C3878      H3883   1.082       .  S
C3878      C3879   1.419       .  A
C3879      C3880   1.407       .  A
C3880      N3881   1.436       .  S
N3881      H3885   1.046       .  S
N3881      H3886   1.046       .  S
N3884      H3887   1.046       .  S
N3884      H3888   1.046       .  S
C3889      H3896   1.085       .  S
C3889      C3890   1.403   1_655  A
C3889      C3894   1.396       .  A
C3890      C3891   1.411   1_565  A
C3891      C3892   1.406   1_455  A
C3891      N3898   1.436       .  S
C3892      H3897   1.083       .  S
C3892      C3893   1.406       .  A
C3893      C3894   1.407   1_545  A
C3894      N3895   1.432       .  S
N3895      H3899   1.046       .  S
N3895      H3900   1.046       .  S
N3898      H3901   1.046       .  S
N3898      H3902   1.046       .  S
C3903      H3910   1.084       .  S
C3903      C3904   1.410       .  A
C3903      C3908   1.415       .  A
C3904      C3905   1.415       .  A
C3905      C3906   1.404       .  A
C3905      N3912   1.440       .  S
C3906      H3911   1.085       .  S
C3906      C3907   1.408       .  A
C3907      C3908   1.417       .  A
C3908      N3909   1.438       .  S
N3909      H3913   1.046       .  S
N3909      H3914   1.044       .  S
N3912      H3915   1.044       .  S
N3912      H3916   1.046       .  S
C3917      H3924   1.084       .  S
C3917      C3918   1.404       .  A
C3917      C3922   1.408   1_455  A
C3918      C3919   1.411   1_455  A
C3919      C3920   1.386       .  A
C3919      N3926   1.434       .  S
C3920      H3925   1.085       .  S
C3920      C3921   1.398       .  A
C3921      C3922   1.407       .  A
C3922      N3923   1.437       .  S
N3923      H3927   1.046   1_655  S
N3923      H3928   1.046       .  S
N3926      H3929   1.045       .  S
N3926      H3930   1.044       .  S
C3931      H3938   1.085       .  S
C3931      C3932   1.402       .  A
C3931      C3936   1.388       .  A
C3932      C3933   1.412       .  A
C3933      C3934   1.402       .  A
C3933      N3940   1.438       .  S
C3934      H3939   1.084       .  S
C3934      C3935   1.402       .  A
C3935      C3936   1.409       .  A
C3936      N3937   1.434       .  S
N3937      H3941   1.043       .  S
N3937      H3942   1.046       .  S
N3940      H3943   1.044       .  S
N3940      H3944   1.046       .  S
C3945      H3952   1.084       .  S
C3945      C3946   1.395       .  A
C3945      C3950   1.407       .  A
C3946      C3947   1.433       .  A
C3947      C3948   1.407       .  A
C3947      N3954   1.437       .  S
C3948      H3953   1.084       .  S
C3948      C3949   1.395       .  A
C3949      C3950   1.432       .  A
C3950      N3951   1.436       .  S
N3951      H3955   1.045       .  S
N3951      H3956   1.044       .  S
N3954      H3957   1.044       .  S
N3954      H3958   1.045       .  S
C3959      H3966   1.083       .  S
C3959      C3960   1.396       .  A
C3959      C3964   1.415       .  A
C3960      C3961   1.438       .  A
C3961      C3962   1.411       .  A
C3961      N3968   1.438       .  S
C3962      H3967   1.084       .  S
C3962      C3963   1.390       .  A
C3963      C3964   1.429       .  A
C3964      N3965   1.437       .  S
N3965      H3969   1.046       .  S
N3965      H3970   1.046       .  S
N3968      H3971   1.046       .  S
N3968      H3972   1.046       .  S
C3973      H3980   1.080       .  S
C3973      C3974   1.418       .  A
C3973      C3978   1.410   1_565  A
C3974      C3975   1.408       .  A
C3975      C3976   1.413   1_565  A
C3975      N3982   1.437       .  S
C3976      H3981   1.083       .  S
C3976      C3977   1.414       .  A
C3977      C3978   1.403       .  A
C3978      N3979   1.438       .  S
N3979      H3983   1.045       .  S
N3979      H3984   1.045       .  S
N3982      H3985   1.045       .  S
N3982      H3986   1.046       .  S
C3987      H3994   1.082       .  S
C3987      C3988   1.398       .  A
C3987      C3992   1.387       .  A
C3988      C3989   1.410       .  A
C3989      C3990   1.408       .  A
C3989      N3996   1.437       .  S
C3990      H3995   1.083   1_565  S
C3990      C3991   1.405       .  A
C3991      C3992   1.415       .  A
C3992      N3993   1.440       .  S
N3993      H3997   1.046       .  S
N3993      H3998   1.046       .  S
N3996      H3999   1.046       .  S
N3996      H4000   1.046   1_565  S
C4001      H4008   1.084       .  S
C4001      C4002   1.415       .  A
C4001      C4006   1.412       .  A
C4002      C4003   1.407       .  A
C4003      C4004   1.414       .  A
C4003      N4010   1.437       .  S
C4004      H4009   1.084       .  S
C4004      C4005   1.412       .  A
C4005      C4006   1.406       .  A
C4006      N4007   1.438       .  S
N4007      H4011   1.046       .  S
N4007      H4012   1.046       .  S
N4010      H4013   1.046       .  S
N4010      H4014   1.046       .  S
C4015      H4022   1.084       .  S
C4015      C4016   1.417       .  A
C4015      C4020   1.408       .  A
C4016      C4017   1.407       .  A
C4017      C4018   1.420       .  A
C4017      N4024   1.436       .  S
C4018      H4023   1.084       .  S
C4018      C4019   1.416       .  A
C4019      C4020   1.402       .  A
C4020      N4021   1.438       .  S
N4021      H4025   1.046       .  S
N4021      H4026   1.046       .  S
N4024      H4027   1.046       .  S
N4024      H4028   1.046       .  S
C4029      H4036   1.085       .  S
C4029      C4030   1.397       .  A
C4029      C4034   1.382       .  A
C4030      C4031   1.411       .  A
C4031      C4032   1.399       .  A
C4031      N4038   1.438       .  S
C4032      H4037   1.084       .  S
C4032      C4033   1.400       .  A
C4033      C4034   1.409       .  A
C4034      N4035   1.434       .  S
N4035      H4039   1.045       .  S
N4035      H4040   1.045       .  S
N4038      H4041   1.044       .  S
N4038      H4042   1.046       .  S
C4043      H4050   1.082       .  S
C4043      C4044   1.402       .  A
C4043      C4048   1.406       .  A
C4044      C4045   1.412       .  A
C4045      C4046   1.393       .  A
C4045      N4052   1.433       .  S
C4046      H4051   1.084       .  S
C4046      C4047   1.401       .  A
C4047      C4048   1.417       .  A
C4048      N4049   1.435       .  S
N4049      H4053   1.046       .  S
N4049      H4054   1.046       .  S
N4052      H4055   1.046       .  S
N4052      H4056   1.046       .  S
C4057      H4064   1.084       .  S
C4057      C4058   1.404       .  A
C4057      C4062   1.416       .  A
C4058      C4059   1.422       .  A
C4059      C4060   1.404       .  A
C4059      N4066   1.439       .  S
C4060      H4065   1.084       .  S
C4060      C4061   1.400       .  A
C4061      C4062   1.415       .  A
C4062      N4063   1.438       .  S
N4063      H4067   1.046       .  S
N4063      H4068   1.045       .  S
N4066      H4069   1.044       .  S
N4066      H4070   1.045       .  S
C4071      H4078   1.083       .  S
C4071      C4072   1.419       .  A
C4071      C4076   1.414   1_655  A
C4072      C4073   1.408       .  A
C4073      C4074   1.412   1_655  A
C4073      N4080   1.436       .  S
C4074      H4079   1.083       .  S
C4074      C4075   1.416       .  A
C4075      C4076   1.405       .  A
C4076      N4077   1.437       .  S
N4077      H4081   1.046       .  S
N4077      H4082   1.046       .  S
N4080      H4083   1.046       .  S
N4080      H4084   1.046       .  S
C4085      H4092   1.084       .  S
C4085      C4086   1.398       .  A
C4085      C4090   1.399       .  A
C4086      C4087   1.413       .  A
C4087      C4088   1.396       .  A
C4087      N4094   1.439       .  S
C4088      H4093   1.084       .  S
C4088      C4089   1.400       .  A
C4089      C4090   1.415       .  A
C4090      N4091   1.433   1_655  S
N4091      H4095   1.044       .  S
N4091      H4096   1.042       .  S
N4094      H4097   1.045       .  S
N4094      H4098   1.046       .  S
C4099      H4106   1.084       .  S
C4099      C4100   1.395       .  A
C4099      C4104   1.410       .  A
C4100      C4101   1.420       .  A
C4101      C4102   1.417       .  A
C4101      N4108   1.437       .  S
C4102      H4107   1.083       .  S
C4102      C4103   1.400       .  A
C4103      C4104   1.426       .  A
C4104      N4105   1.439       .  S
N4105      H4109   1.046       .  S
N4105      H4110   1.045       .  S
N4108      H4111   1.045       .  S
N4108      H4112   1.046       .  S
C4113      H4120   1.084       .  S
C4113      C4114   1.413       .  A
C4113      C4118   1.409   1_565  A
C4114      C4115   1.406       .  A
C4115      C4116   1.413   1_565  A
C4115      N4122   1.437       .  S
C4116      H4121   1.084       .  S
C4116      C4117   1.412       .  A
C4117      C4118   1.405       .  A
C4118      N4119   1.438       .  S
N4119      H4123   1.046       .  S
N4119      H4124   1.046       .  S
N4122      H4125   1.046       .  S
N4122      H4126   1.046       .  S
C4127      H4134   1.083       .  S
C4127      C4128   1.421       .  A
C4127      C4132   1.412   1_655  A
C4128      C4129   1.403       .  A
C4129      C4130   1.410   1_655  A
C4129      N4136   1.437       .  S
C4130      H4135   1.083       .  S
C4130      C4131   1.421       .  A
C4131      C4132   1.402       .  A
C4132      N4133   1.436       .  S
N4133      H4137   1.046       .  S
N4133      H4138   1.045       .  S
N4136      H4139   1.046       .  S
N4136      H4140   1.046       .  S
C4141      H4148   1.084       .  S
C4141      C4142   1.403       .  A
C4141      C4146   1.399       .  A
C4142      C4143   1.412       .  A
C4143      C4144   1.398       .  A
C4143      N4150   1.437       .  S
C4144      H4149   1.084   1_565  S
C4144      C4145   1.401       .  A
C4145      C4146   1.407       .  A
C4146      N4147   1.438       .  S
N4147      H4151   1.046       .  S
N4147      H4152   1.046       .  S
N4150      H4153   1.046       .  S
N4150      H4154   1.046       .  S
C4155      H4162   1.083       .  S
C4155      C4156   1.402       .  A
C4155      C4160   1.405   1_655  A
C4156      C4157   1.418       .  A
C4157      C4158   1.391       .  A
C4157      N4164   1.440       .  S
C4158      H4163   1.083       .  S
C4158      C4159   1.399       .  A
C4159      C4160   1.413   1_655  A
C4160      N4161   1.433       .  S
N4161      H4165   1.046       .  S
N4161      H4166   1.044       .  S
N4164      H4167   1.046       .  S
N4164      H4168   1.046       .  S
C4169      H4176   1.084       .  S
C4169      C4170   1.402       .  A
C4169      C4174   1.397       .  A
C4170      C4171   1.413       .  A
C4171      C4172   1.399       .  A
C4171      N4178   1.438       .  S
C4172      H4177   1.084       .  S
C4172      C4173   1.400       .  A
C4173      C4174   1.405       .  A
C4174      N4175   1.438       .  S
N4175      H4179   1.046       .  S
N4175      H4180   1.046       .  S
N4178      H4181   1.046       .  S
N4178      H4182   1.046       .  S
C4183      H4190   1.084       .  S
C4183      C4184   1.410       .  A
C4183      C4188   1.408       .  A
C4184      C4185   1.409       .  A
C4185      C4186   1.417       .  A
C4185      N4192   1.437       .  S
C4186      H4191   1.084       .  S
C4186      C4187   1.411       .  A
C4187      C4188   1.408       .  A
C4188      N4189   1.439       .  S
N4189      H4193   1.046       .  S
N4189      H4194   1.046       .  S
N4192      H4195   1.046       .  S
N4192      H4196   1.046       .  S
C4197      H4204   1.083       .  S
C4197      C4198   1.400       .  A
C4197      C4202   1.386       .  A
C4198      C4199   1.405       .  A
C4199      C4200   1.405       .  A
C4199      N4206   1.437       .  S
C4200      H4205   1.084       .  S
C4200      C4201   1.405       .  A
C4201      C4202   1.410       .  A
C4202      N4203   1.440       .  S
N4203      H4207   1.046       .  S
N4203      H4208   1.046       .  S
N4206      H4209   1.045       .  S
N4206      H4210   1.046       .  S
C4211      H4218   1.084       .  S
C4211      C4212   1.415       .  A
C4211      C4216   1.404       .  A
C4212      C4213   1.416       .  A
C4213      C4214   1.412       .  A
C4213      N4220   1.437       .  S
C4214      H4219   1.084       .  S
C4214      C4215   1.414       .  A
C4215      C4216   1.412       .  A
C4216      N4217   1.438       .  S
N4217      H4221   1.046       .  S
N4217      H4222   1.040       .  S
N4220      H4223   1.041       .  S
N4220      H4224   1.046       .  S
C4225      H4232   1.084       .  S
C4225      C4226   1.403       .  A
C4225      C4230   1.412       .  A
C4226      C4227   1.422       .  A
C4227      C4228   1.407       .  A
C4227      N4234   1.440       .  S
C4228      H4233   1.084       .  S
C4228      C4229   1.402       .  A
C4229      C4230   1.421       .  A
C4230      N4231   1.438       .  S
N4231      H4235   1.046       .  S
N4231      H4236   1.044       .  S
N4234      H4237   1.043       .  S
N4234      H4238   1.046       .  S
C4239      H4246   1.084       .  S
C4239      C4240   1.409       .  A
C4239      C4244   1.419       .  A
C4240      C4241   1.411       .  A
C4241      C4242   1.413       .  A
C4241      N4248   1.438       .  S
C4242      H4247   1.084       .  S
C4242      C4243   1.408       .  A
C4243      C4244   1.412       .  A
C4244      N4245   1.437       .  S
N4245      H4249   1.046       .  S
N4245      H4250   1.046       .  S
N4248      H4251   1.046       .  S
N4248      H4252   1.046       .  S
C4253      H4260   1.084       .  S
C4253      C4254   1.409       .  A
C4253      C4258   1.417   1_655  A
C4254      C4255   1.415       .  A
C4255      C4256   1.404   1_655  A
C4255      N4262   1.434       .  S
C4256      H4261   1.084       .  S
C4256      C4257   1.407       .  A
C4257      C4258   1.421       .  A
C4258      N4259   1.438       .  S
N4259      H4263   1.045       .  S
N4259      H4264   1.044       .  S
N4262      H4265   1.046       .  S
N4262      H4266   1.044       .  S
C4267      H4274   1.084       .  S
C4267      C4268   1.416       .  A
C4267      C4272   1.419   1_556  A
C4268      C4269   1.414       .  A
C4269      C4270   1.405   1_556  A
C4269      N4276   1.439       .  S
C4270      H4275   1.083       .  S
C4270      C4271   1.412       .  A
C4271      C4272   1.407       .  A
C4272      N4273   1.436       .  S
N4273      H4277   1.046       .  S
N4273      H4278   1.046       .  S
N4276      H4279   1.041       .  S
N4276      H4280   1.046       .  S
C4281      H4288   1.083       .  S
C4281      C4282   1.419       .  A
C4281      C4286   1.414       .  A
C4282      C4283   1.407       .  A
C4283      C4284   1.414       .  A
C4283      N4290   1.436       .  S
C4284      H4289   1.083       .  S
C4284      C4285   1.417       .  A
C4285      C4286   1.406       .  A
C4286      N4287   1.437       .  S
N4287      H4291   1.046       .  S
N4287      H4292   1.046       .  S
N4290      H4293   1.046       .  S
N4290      H4294   1.046       .  S
C4295      H4302   1.084       .  S
C4295      C4296   1.405       .  A
C4295      C4300   1.415       .  A
C4296      C4297   1.418       .  A
C4297      C4298   1.411       .  A
C4297      N4304   1.439       .  S
C4298      H4303   1.084       .  S
C4298      C4299   1.403       .  A
C4299      C4300   1.422       .  A
C4300      N4301   1.437       .  S
N4301      H4305   1.046       .  S
N4301      H4306   1.044       .  S
N4304      H4307   1.044       .  S
N4304      H4308   1.046       .  S
C4309      H4316   1.084       .  S
C4309      C4310   1.397       .  A
C4309      C4314   1.407       .  A
C4310      C4311   1.422       .  A
C4311      C4312   1.413       .  A
C4311      N4318   1.432       .  S
C4312      H4317   1.084       .  S
C4312      C4313   1.403       .  A
C4313      C4314   1.420       .  A
C4314      N4315   1.433       .  S
N4315      H4319   1.045       .  S
N4315      H4320   1.046       .  S
N4318      H4321   1.046       .  S
N4318      H4322   1.045       .  S
C4323      H4330   1.084       .  S
C4323      C4324   1.402       .  A
C4323      C4328   1.398   1_556  A
C4324      C4325   1.412       .  A
C4325      C4326   1.403   1_556  A
C4325      N4332   1.437       .  S
C4326      H4331   1.084       .  S
C4326      C4327   1.403       .  A
C4327      C4328   1.413       .  A
C4328      N4329   1.437       .  S
N4329      H4333   1.045   1_554  S
N4329      H4334   1.044       .  S
N4332      H4335   1.045   1_556  S
N4332      H4336   1.046   1_556  S
C4337      H4344   1.083       .  S
C4337      C4338   1.395       .  A
C4337      C4342   1.411   1_655  A
C4338      C4339   1.434       .  A
C4339      C4340   1.413   1_655  A
C4339      N4346   1.438       .  S
C4340      H4345   1.083       .  S
C4340      C4341   1.394       .  A
C4341      C4342   1.429       .  A
C4342      N4343   1.432       .  S
N4343      H4347   1.046       .  S
N4343      H4348   1.046       .  S
N4346      H4349   1.046       .  S
N4346      H4350   1.046   1_655  S
C4351      H4358   1.083       .  S
C4351      C4352   1.398       .  A
C4351      C4356   1.414       .  A
C4352      C4353   1.429       .  A
C4353      C4354   1.411       .  A
C4353      N4360   1.435       .  S
C4354      H4359   1.084       .  S
C4354      C4355   1.393       .  A
C4355      C4356   1.425       .  A
C4356      N4357   1.438       .  S
N4357      H4361   1.046       .  S
N4357      H4362   1.046       .  S
N4360      H4363   1.044       .  S
N4360      H4364   1.046       .  S
C4365      H4372   1.084       .  S
C4365      C4366   1.396       .  A
C4365      C4370   1.411       .  A
C4366      C4367   1.421       .  A
C4367      C4368   1.416       .  A
C4367      N4374   1.438       .  S
C4368      H4373   1.083       .  S
C4368      C4369   1.400       .  A
C4369      C4370   1.427       .  A
C4370      N4371   1.439       .  S
N4371      H4375   1.046       .  S
N4371      H4376   1.045       .  S
N4374      H4377   1.046       .  S
N4374      H4378   1.046       .  S
C4379      H4386   1.084       .  S
C4379      C4380   1.416       .  A
C4379      C4384   1.417       .  A
C4380      C4381   1.404       .  A
C4381      C4382   1.411       .  A
C4381      N4388   1.438       .  S
C4382      H4387   1.083       .  S
C4382      C4383   1.417       .  A
C4383      C4384   1.406       .  A
C4384      N4385   1.436       .  S
N4385      H4389   1.046       .  S
N4385      H4390   1.046       .  S
N4388      H4391   1.046       .  S
N4388      H4392   1.046       .  S
C4393      H4400   1.083       .  S
C4393      C4394   1.407       .  A
C4393      C4398   1.414   1_455  A
C4394      C4395   1.417   1_455  A
C4395      C4396   1.380       .  A
C4395      N4402   1.442       .  S
C4396      H4401   1.079       .  S
C4396      C4397   1.398       .  A
C4397      C4398   1.411       .  A
C4398      N4399   1.437       .  S
N4399      H4403   1.046   1_655  S
N4399      H4404   1.046       .  S
N4402      H4405   1.046       .  S
N4402      H4406   1.046       .  S
C4407      H4414   1.084       .  S
C4407      C4408   1.407       .  A
C4407      C4412   1.415   1_556  A
C4408      C4409   1.421       .  A
C4409      C4410   1.409   1_556  A
C4409      N4416   1.439       .  S
C4410      H4415   1.084       .  S
C4410      C4411   1.404       .  A
C4411      C4412   1.421       .  A
C4412      N4413   1.438       .  S
N4413      H4417   1.045       .  S
N4413      H4418   1.044       .  S
N4416      H4419   1.044       .  S
N4416      H4420   1.046       .  S
C4421      H4428   1.085       .  S
C4421      C4422   1.398   1_655  A
C4421      C4426   1.384       .  A
C4422      C4423   1.407   1_556  A
C4423      C4424   1.409   1_455  A
C4423      N4430   1.437       .  S
C4424      H4429   1.084       .  S
C4424      C4425   1.405       .  A
C4425      C4426   1.406   1_554  A
C4426      N4427   1.434       .  S
N4427      H4431   1.046       .  S
N4427      H4432   1.046       .  S
N4430      H4433   1.046       .  S
N4430      H4434   1.046       .  S
C4435      H4442   1.084       .  S
C4435      C4436   1.414       .  A
C4435      C4440   1.409       .  A
C4436      C4437   1.405       .  A
C4437      C4438   1.415       .  A
C4437      N4444   1.437       .  S
C4438      H4443   1.084       .  S
C4438      C4439   1.417       .  A
C4439      C4440   1.416       .  A
C4440      N4441   1.438       .  S
N4441      H4445   1.046       .  S
N4441      H4446   1.040       .  S
N4444      H4447   1.046       .  S
N4444      H4448   1.046       .  S
C4449      H4456   1.084       .  S
C4449      C4450   1.402       .  A
C4449      C4454   1.389       .  A
C4450      C4451   1.411       .  A
C4451      C4452   1.401       .  A
C4451      N4458   1.431       .  S
C4452      H4457   1.084       .  S
C4452      C4453   1.404       .  A
C4453      C4454   1.414       .  A
C4454      N4455   1.433       .  S
N4455      H4459   1.042       .  S
N4455      H4460   1.046       .  S
N4458      H4461   1.045       .  S
N4458      H4462   1.044       .  S
C4463      H4470   1.083       .  S
C4463      C4464   1.415       .  A
C4463      C4468   1.414       .  A
C4464      C4465   1.403       .  A
C4465      C4466   1.410       .  A
C4465      N4472   1.438       .  S
C4466      H4471   1.082       .  S
C4466      C4467   1.419       .  A
C4467      C4468   1.407       .  A
C4468      N4469   1.436       .  S
N4469      H4473   1.046       .  S
N4469      H4474   1.046       .  S
N4472      H4475   1.046       .  S
N4472      H4476   1.046       .  S
C4477      H4484   1.083   1_554  S
C4477      C4478   1.417   1_554  A
C4477      C4482   1.412       .  A
C4478      C4479   1.402       .  A
C4479      C4480   1.413   1_556  A
C4479      N4486   1.437       .  S
C4480      H4485   1.082       .  S
C4480      C4481   1.422       .  A
C4481      C4482   1.406       .  A
C4482      N4483   1.436       .  S
N4483      H4487   1.046       .  S
N4483      H4488   1.045       .  S
N4486      H4489   1.046       .  S
N4486      H4490   1.046       .  S
C4491      H4498   1.085       .  S
C4491      C4492   1.401       .  A
C4491      C4496   1.385       .  A
C4492      C4493   1.412   1_556  A
C4493      C4494   1.402       .  A
C4493      N4500   1.438       .  S
C4494      H4499   1.084       .  S
C4494      C4495   1.403       .  A
C4495      C4496   1.411   1_554  A
C4496      N4497   1.433       .  S
N4497      H4501   1.042       .  S
N4497      H4502   1.045       .  S
N4500      H4503   1.044   1_554  S
N4500      H4504   1.046       .  S
C4505      H4512   1.084       .  S
C4505      C4506   1.402       .  A
C4505      C4510   1.408       .  A
C4506      C4507   1.422       .  A
C4507      C4508   1.413       .  A
C4507      N4514   1.439       .  S
C4508      H4513   1.084       .  S
C4508      C4509   1.404       .  A
C4509      C4510   1.422       .  A
C4510      N4511   1.440       .  S
N4511      H4515   1.045       .  S
N4511      H4516   1.044       .  S
N4514      H4517   1.044       .  S
N4514      H4518   1.046       .  S
C4519      H4526   1.084       .  S
C4519      C4520   1.407       .  A
C4519      C4524   1.414   1_655  A
C4520      C4521   1.418       .  A
C4521      C4522   1.409   1_655  A
C4521      N4528   1.439       .  S
C4522      H4527   1.084       .  S
C4522      C4523   1.407       .  A
C4523      C4524   1.419       .  A
C4524      N4525   1.438       .  S
N4525      H4529   1.046       .  S
N4525      H4530   1.044       .  S
N4528      H4531   1.043       .  S
N4528      H4532   1.046       .  S
C4533      H4540   1.082       .  S
C4533      C4534   1.413       .  A
C4533      C4538   1.403   1_554  A
C4534      C4535   1.416       .  A
C4535      C4536   1.412   1_554  A
C4535      N4542   1.437       .  S
C4536      H4541   1.084       .  S
C4536      C4537   1.413       .  A
C4537      C4538   1.411       .  A
C4538      N4539   1.438       .  S
N4539      H4543   1.046       .  S
N4539      H4544   1.040       .  S
N4542      H4545   1.041       .  S
N4542      H4546   1.046       .  S
C4547      H4554   1.084       .  S
C4547      C4548   1.401       .  A
C4547      C4552   1.392   1_556  A
C4548      C4549   1.416       .  A
C4549      C4550   1.398       .  A
C4549      N4556   1.438       .  S
C4550      H4555   1.084   1_556  S
C4550      C4551   1.400   1_556  A
C4551      C4552   1.415       .  A
C4552      N4553   1.433       .  S
N4553      H4557   1.043       .  S
N4553      H4558   1.046       .  S
N4556      H4559   1.044       .  S
N4556      H4560   1.045       .  S
C4561      H4568   1.083       .  S
C4561      C4562   1.403       .  A
C4561      C4566   1.405       .  A
C4562      C4563   1.411       .  A
C4563      C4564   1.398       .  A
C4563      N4570   1.439       .  S
C4564      H4569   1.083       .  S
C4564      C4565   1.402       .  A
C4565      C4566   1.414       .  A
C4566      N4567   1.438   1_655  S
N4567      H4571   1.046       .  S
N4567      H4572   1.046       .  S
N4570      H4573   1.046       .  S
N4570      H4574   1.046       .  S
C4575      H4582   1.084       .  S
C4575      C4576   1.403       .  A
C4575      C4580   1.403       .  A
C4576      C4577   1.405       .  A
C4577      C4578   1.388       .  A
C4577      N4584   1.440       .  S
C4578      H4583   1.085       .  S
C4578      C4579   1.401       .  A
C4579      C4580   1.413       .  A
C4580      N4581   1.438       .  S
N4581      H4585   1.046       .  S
N4581      H4586   1.044       .  S
N4584      H4587   1.046       .  S
N4584      H4588   1.046       .  S
C4589      H4596   1.082       .  S
C4589      C4590   1.419       .  A
C4589      C4594   1.408       .  A
C4590      C4591   1.408       .  A
C4591      C4592   1.421       .  A
C4591      N4598   1.436       .  S
C4592      H4597   1.084       .  S
C4592      C4593   1.417       .  A
C4593      C4594   1.402       .  A
C4594      N4595   1.439       .  S
N4595      H4599   1.046       .  S
N4595      H4600   1.046       .  S
N4598      H4601   1.046       .  S
N4598      H4602   1.046       .  S
C4603      H4610   1.084       .  S
C4603      C4604   1.409       .  A
C4603      C4608   1.418       .  A
C4604      C4605   1.410       .  A
C4605      C4606   1.409       .  A
C4605      N4612   1.439       .  S
C4606      H4611   1.084       .  S
C4606      C4607   1.407       .  A
C4607      C4608   1.411       .  A
C4608      N4609   1.437       .  S
N4609      H4613   1.046       .  S
N4609      H4614   1.046       .  S
N4612      H4615   1.045       .  S
N4612      H4616   1.046       .  S
C4617      H4624   1.084       .  S
C4617      C4618   1.415       .  A
C4617      C4622   1.412       .  A
C4618      C4619   1.413       .  A
C4619      C4620   1.405       .  A
C4619      N4626   1.438       .  S
C4620      H4625   1.084       .  S
C4620      C4621   1.415       .  A
C4621      C4622   1.407       .  A
C4622      N4623   1.436       .  S
N4623      H4627   1.046       .  S
N4623      H4628   1.045       .  S
N4626      H4629   1.041       .  S
N4626      H4630   1.046       .  S
C4631      H4638   1.083       .  S
C4631      C4632   1.405       .  A
C4631      C4636   1.386       .  A
C4632      C4633   1.407       .  A
C4633      C4634   1.409       .  A
C4633      N4640   1.437       .  S
C4634      H4639   1.083       .  S
C4634      C4635   1.409       .  A
C4635      C4636   1.411       .  A
C4636      N4637   1.441       .  S
N4637      H4641   1.046       .  S
N4637      H4642   1.046       .  S
N4640      H4643   1.046       .  S
N4640      H4644   1.046       .  S
C4645      H4652   1.084       .  S
C4645      C4646   1.401       .  A
C4645      C4650   1.407       .  A
C4646      C4647   1.422       .  A
C4647      C4648   1.413       .  A
C4647      N4654   1.439       .  S
C4648      H4653   1.084       .  S
C4648      C4649   1.404       .  A
C4649      C4650   1.423       .  A
C4650      N4651   1.440       .  S
N4651      H4655   1.046       .  S
N4651      H4656   1.043       .  S
N4654      H4657   1.044       .  S
N4654      H4658   1.046       .  S
C4659      H4666   1.084       .  S
C4659      C4660   1.398       .  A
C4659      C4664   1.402       .  A
C4660      C4661   1.408       .  A
C4661      C4662   1.400       .  A
C4661      N4668   1.438       .  S
C4662      H4667   1.084       .  S
C4662      C4663   1.402       .  A
C4663      C4664   1.410       .  A
C4664      N4665   1.438       .  S
N4665      H4669   1.046       .  S
N4665      H4670   1.044       .  S
N4668      H4671   1.045       .  S
N4668      H4672   1.046       .  S
C4673      H4680   1.083       .  S
C4673      C4674   1.401       .  A
C4673      C4678   1.416   1_655  A
C4674      C4675   1.422       .  A
C4675      C4676   1.406   1_655  A
C4675      N4682   1.433       .  S
C4676      H4681   1.084       .  S
C4676      C4677   1.395       .  A
C4677      C4678   1.421       .  A
C4678      N4679   1.438       .  S
N4679      H4683   1.046   1_455  S
N4679      H4684   1.045       .  S
N4682      H4685   1.046       .  S
N4682      H4686   1.046       .  S
C4687      H4694   1.084       .  S
C4687      C4688   1.399       .  A
C4687      C4692   1.403       .  A
C4688      C4689   1.411       .  A
C4689      C4690   1.394       .  A
C4689      N4696   1.439       .  S
C4690      H4695   1.084       .  S
C4690      C4691   1.399       .  A
C4691      C4692   1.409       .  A
C4692      N4693   1.435   1_655  S
N4693      H4697   1.046       .  S
N4693      H4698   1.046       .  S
N4696      H4699   1.046       .  S
N4696      H4700   1.046       .  S
C4701      H4708   1.084       .  S
C4701      C4702   1.401       .  A
C4701      C4706   1.400       .  A
C4702      C4703   1.412       .  A
C4703      C4704   1.383       .  A
C4703      N4710   1.434       .  S
C4704      H4709   1.085       .  S
C4704      C4705   1.398       .  A
C4705      C4706   1.414       .  A
C4706      N4707   1.438       .  S
N4707      H4711   1.046       .  S
N4707      H4712   1.043       .  S
N4710      H4713   1.046       .  S
N4710      H4714   1.044       .  S
C4715      H4722   1.084       .  S
C4715      C4716   1.412       .  A
C4715      C4720   1.411       .  A
C4716      C4717   1.408       .  A
C4717      C4718   1.414       .  A
C4717      N4724   1.437       .  S
C4718      H4723   1.084       .  S
C4718      C4719   1.411       .  A
C4719      C4720   1.406       .  A
C4720      N4721   1.438       .  S
N4721      H4725   1.046       .  S
N4721      H4726   1.046       .  S
N4724      H4727   1.046       .  S
N4724      H4728   1.046       .  S
C4729      H4736   1.084       .  S
C4729      C4730   1.397       .  A
C4729      C4734   1.411       .  A
C4730      C4731   1.419       .  A
C4731      C4732   1.416       .  A
C4731      N4738   1.437       .  S
C4732      H4737   1.083       .  S
C4732      C4733   1.401       .  A
C4733      C4734   1.424       .  A
C4734      N4735   1.439       .  S
N4735      H4739   1.046       .  S
N4735      H4740   1.046       .  S
N4738      H4741   1.046       .  S
N4738      H4742   1.046       .  S
C4743      H4750   1.082       .  S
C4743      C4744   1.421       .  A
C4743      C4748   1.415       .  A
C4744      C4745   1.407       .  A
C4745      C4746   1.414       .  A
C4745      N4752   1.436       .  S
C4746      H4751   1.083       .  S
C4746      C4747   1.418       .  A
C4747      C4748   1.406       .  A
C4748      N4749   1.437       .  S
N4749      H4753   1.045       .  S
N4749      H4754   1.046       .  S
N4752      H4755   1.046       .  S
N4752      H4756   1.046       .  S
C4757      H4764   1.082       .  S
C4757      C4758   1.423       .  A
C4757      C4762   1.411   1_565  A
C4758      C4759   1.407       .  A
C4759      C4760   1.406   1_565  A
C4759      N4766   1.430       .  S
C4760      H4765   1.082       .  S
C4760      C4761   1.419       .  A
C4761      C4762   1.402       .  A
C4762      N4763   1.437       .  S
N4763      H4767   1.046       .  S
N4763      H4768   1.045       .  S
N4766      H4769   1.045       .  S
N4766      H4770   1.045       .  S
C4771      H4778   1.084       .  S
C4771      C4772   1.413       .  A
C4771      C4776   1.415   1_554  A
C4772      C4773   1.413       .  A
C4773      C4774   1.407   1_554  A
C4773      N4780   1.439       .  S
C4774      H4779   1.085       .  S
C4774      C4775   1.413       .  A
C4775      C4776   1.416       .  A
C4776      N4777   1.437       .  S
N4777      H4781   1.046       .  S
N4777      H4782   1.043       .  S
N4780      H4783   1.043       .  S
N4780      H4784   1.046       .  S
C4785      H4792   1.084       .  S
C4785      C4786   1.415       .  A
C4785      C4790   1.415       .  A
C4786      C4787   1.405       .  A
C4787      C4788   1.410       .  A
C4787      N4794   1.437       .  S
C4788      H4793   1.083       .  S
C4788      C4789   1.417       .  A
C4789      C4790   1.408       .  A
C4790      N4791   1.436       .  S
N4791      H4795   1.046       .  S
N4791      H4796   1.045       .  S
N4794      H4797   1.045       .  S
N4794      H4798   1.046       .  S
C4799      H4806   1.084       .  S
C4799      C4800   1.402       .  A
C4799      C4804   1.409       .  A
C4800      C4801   1.423       .  A
C4801      C4802   1.415       .  A
C4801      N4808   1.438       .  S
C4802      H4807   1.084       .  S
C4802      C4803   1.405       .  A
C4803      C4804   1.423       .  A
C4804      N4805   1.440       .  S
N4805      H4809   1.046       .  S
N4805      H4810   1.043       .  S
N4808      H4811   1.044       .  S
N4808      H4812   1.046       .  S
C4813      H4820   1.084       .  S
C4813      C4814   1.393       .  A
C4813      C4818   1.404       .  A
C4814      C4815   1.430       .  A
C4815      C4816   1.414       .  A
C4815      N4822   1.437       .  S
C4816      H4821   1.083       .  S
C4816      C4817   1.396       .  A
C4817      C4818   1.435       .  A
C4818      N4819   1.432       .  S
N4819      H4823   1.041       .  S
N4819      H4824   1.045       .  S
N4822      H4825   1.046       .  S
N4822      H4826   1.046       .  S
C4827      H4834   1.084       .  S
C4827      C4828   1.398   1_556  A
C4827      C4832   1.391       .  A
C4828      C4829   1.416       .  A
C4829      C4830   1.404       .  A
C4829      N4836   1.438       .  S
C4830      H4835   1.084       .  S
C4830      C4831   1.401   1_554  A
C4831      C4832   1.407       .  A
C4832      N4833   1.439       .  S
N4833      H4837   1.046       .  S
N4833      H4838   1.045       .  S
N4836      H4839   1.043       .  S
N4836      H4840   1.046       .  S
C4841      H4848   1.082       .  S
C4841      C4842   1.419       .  A
C4841      C4846   1.407   1_565  A
C4842      C4843   1.407       .  A
C4843      C4844   1.419   1_565  A
C4843      N4850   1.436       .  S
C4844      H4849   1.084       .  S
C4844      C4845   1.416       .  A
C4845      C4846   1.401       .  A
C4846      N4847   1.438       .  S
N4847      H4851   1.046       .  S
N4847      H4852   1.046       .  S
N4850      H4853   1.046       .  S
N4850      H4854   1.046       .  S
C4855      H4862   1.084       .  S
C4855      C4856   1.398       .  A
C4855      C4860   1.406       .  A
C4856      C4857   1.426       .  A
C4857      C4858   1.412       .  A
C4857      N4864   1.438       .  S
C4858      H4863   1.084       .  S
C4858      C4859   1.401       .  A
C4859      C4860   1.426       .  A
C4860      N4861   1.437       .  S
N4861      H4865   1.044       .  S
N4861      H4866   1.043       .  S
N4864      H4867   1.043       .  S
N4864      H4868   1.045       .  S
C4869      H4876   1.083       .  S
C4869      C4870   1.415       .  A
C4869      C4874   1.415       .  A
C4870      C4871   1.404       .  A
C4871      C4872   1.413       .  A
C4871      N4878   1.438       .  S
C4872      H4877   1.081       .  S
C4872      C4873   1.419       .  A
C4873      C4874   1.408       .  A
C4874      N4875   1.437       .  S
N4875      H4879   1.046       .  S
N4875      H4880   1.046       .  S
N4878      H4881   1.046       .  S
N4878      H4882   1.046       .  S
C4883      H4890   1.084       .  S
C4883      C4884   1.407       .  A
C4883      C4888   1.413       .  A
C4884      C4885   1.415       .  A
C4885      C4886   1.420       .  A
C4885      N4892   1.437       .  S
C4886      H4891   1.084       .  S
C4886      C4887   1.408       .  A
C4887      C4888   1.413       .  A
C4888      N4889   1.439       .  S
N4889      H4893   1.046       .  S
N4889      H4894   1.045       .  S
N4892      H4895   1.045       .  S
N4892      H4896   1.046       .  S
C4897      H4904   1.085       .  S
C4897      C4898   1.398   1_565  A
C4897      C4902   1.384       .  A
C4898      C4899   1.415       .  A
C4899      C4900   1.406   1_545  A
C4899      N4906   1.438       .  S
C4900      H4905   1.084   1_565  S
C4900      C4901   1.403       .  A
C4901      C4902   1.406       .  A
C4902      N4903   1.434       .  S
N4903      H4907   1.046       .  S
N4903      H4908   1.046       .  S
N4906      H4909   1.044       .  S
N4906      H4910   1.046       .  S
C4911      H4918   1.083       .  S
C4911      C4912   1.395       .  A
C4911      C4916   1.414   1_556  A
C4912      C4913   1.434   1_556  A
C4913      C4914   1.411       .  A
C4913      N4920   1.438   1_554  S
C4914      H4919   1.084       .  S
C4914      C4915   1.392       .  A
C4915      C4916   1.430       .  A
C4916      N4917   1.437       .  S
N4917      H4921   1.046       .  S
N4917      H4922   1.046       .  S
N4920      H4923   1.046       .  S
N4920      H4924   1.046   1_556  S
C4925      H4932   1.084       .  S
C4925      C4926   1.401   1_554  A
C4925      C4930   1.406   1_545  A
C4926      C4927   1.408   1_545  A
C4927      C4928   1.393       .  A
C4927      N4934   1.439       .  S
C4928      H4933   1.084       .  S
C4928      C4929   1.397   1_556  A
C4929      C4930   1.407       .  A
C4930      N4931   1.437       .  S
N4931      H4935   1.046   1_565  S
N4931      H4936   1.045       .  S
N4934      H4937   1.045   1_565  S
N4934      H4938   1.046       .  S
C4939      H4946   1.084       .  S
C4939      C4940   1.415       .  A
C4939      C4944   1.407       .  A
C4940      C4941   1.416       .  A
C4941      C4942   1.411       .  A
C4941      N4948   1.437       .  S
C4942      H4947   1.084       .  S
C4942      C4943   1.412       .  A
C4943      C4944   1.412       .  A
C4944      N4945   1.439       .  S
N4945      H4949   1.046       .  S
N4945      H4950   1.042       .  S
N4948      H4951   1.041       .  S
N4948      H4952   1.046       .  S
C4953      H4960   1.084       .  S
C4953      C4954   1.399       .  A
C4953      C4958   1.399       .  A
C4954      C4955   1.406       .  A
C4955      C4956   1.403       .  A
C4955      N4962   1.437       .  S
C4956      H4961   1.084       .  S
C4956      C4957   1.399       .  A
C4957      C4958   1.409       .  A
C4958      N4959   1.438       .  S
N4959      H4963   1.046       .  S
N4959      H4964   1.045       .  S
N4962      H4965   1.044       .  S
N4962      H4966   1.046       .  S
C4967      H4974   1.083       .  S
C4967      C4968   1.399       .  A
C4967      C4972   1.415       .  A
C4968      C4969   1.429       .  A
C4969      C4970   1.410       .  A
C4969      N4976   1.436       .  S
C4970      H4975   1.084       .  S
C4970      C4971   1.393       .  A
C4971      C4972   1.424       .  A
C4972      N4973   1.438       .  S
N4973      H4977   1.046       .  S
N4973      H4978   1.046       .  S
N4976      H4979   1.045       .  S
N4976      H4980   1.046       .  S
C4981      H4988   1.082       .  S
C4981      C4982   1.421       .  A
C4981      C4986   1.409   1_556  A
C4982      C4983   1.405       .  A
C4983      C4984   1.411   1_556  A
C4983      N4990   1.436       .  S
C4984      H4989   1.082       .  S
C4984      C4985   1.417       .  A
C4985      C4986   1.402       .  A
C4986      N4987   1.437       .  S
N4987      H4991   1.046       .  S
N4987      H4992   1.045       .  S
N4990      H4993   1.045       .  S
N4990      H4994   1.046       .  S
C4995      H5002   1.084       .  S
C4995      C4996   1.405       .  A
C4995      C5000   1.398       .  A
C4996      C4997   1.412       .  A
C4997      C4998   1.404   1_556  A
C4997      N5004   1.436   1_556  S
C4998      H5003   1.082       .  S
C4998      C4999   1.405       .  A
C4999      C5000   1.410   1_554  A
C5000      N5001   1.438       .  S
N5001      H5005   1.046       .  S
N5001      H5006   1.045       .  S
N5004      H5007   1.046       .  S
N5004      H5008   1.046       .  S
C5009      H5016   1.084       .  S
C5009      C5010   1.403       .  A
C5009      C5014   1.409       .  A
C5010      C5011   1.418       .  A
C5011      C5012   1.420       .  A
C5011      N5018   1.438       .  S
C5012      H5017   1.083       .  S
C5012      C5013   1.405       .  A
C5013      C5014   1.423       .  A
C5014      N5015   1.439       .  S
N5015      H5019   1.045       .  S
N5015      H5020   1.044       .  S
N5018      H5021   1.045       .  S
N5018      H5022   1.046       .  S
C5023      H5030   1.084       .  S
C5023      C5024   1.399       .  A
C5023      C5028   1.409   1_565  A
C5024      C5025   1.424       .  A
C5025      C5026   1.412   1_565  A
C5025      N5032   1.439       .  S
C5026      H5031   1.084       .  S
C5026      C5027   1.401       .  A
C5027      C5028   1.419       .  A
C5028      N5029   1.439       .  S
N5029      H5033   1.046       .  S
N5029      H5034   1.046       .  S
N5032      H5035   1.044       .  S
N5032      H5036   1.046       .  S
C5037      H5044   1.083       .  S
C5037      C5038   1.400       .  A
C5037      C5042   1.416   1_556  A
C5038      C5039   1.424       .  A
C5039      C5040   1.408   1_556  A
C5039      N5046   1.439       .  S
C5040      H5045   1.084       .  S
C5040      C5041   1.395       .  A
C5041      C5042   1.419       .  A
C5042      N5043   1.437       .  S
N5043      H5047   1.046       .  S
N5043      H5048   1.045       .  S
N5046      H5049   1.045       .  S
N5046      H5050   1.045   1_556  S
C5051      H5058   1.084   1_556  S
C5051      C5052   1.399       .  A
C5051      C5056   1.401   1_556  A
C5052      C5053   1.413       .  A
C5053      C5054   1.388       .  A
C5053      N5060   1.435       .  S
C5054      H5059   1.085       .  S
C5054      C5055   1.398   1_556  A
C5055      C5056   1.415       .  A
C5056      N5057   1.439       .  S
N5057      H5061   1.046       .  S
N5057      H5062   1.043       .  S
N5060      H5063   1.045       .  S
N5060      H5064   1.043       .  S
C5065      H5072   1.084       .  S
C5065      C5066   1.404       .  A
C5065      C5070   1.407   1_565  A
C5066      C5067   1.415       .  A
C5067      C5068   1.394       .  A
C5067      N5074   1.438       .  S
C5068      H5073   1.083       .  S
C5068      C5069   1.401       .  A
C5069      C5070   1.411   1_565  A
C5070      N5071   1.437       .  S
N5071      H5075   1.046       .  S
N5071      H5076   1.046       .  S
N5074      H5077   1.046       .  S
N5074      H5078   1.046       .  S
C5079      H5086   1.085       .  S
C5079      C5080   1.397       .  A
C5079      C5084   1.380       .  A
C5080      C5081   1.416       .  A
C5081      C5082   1.405       .  A
C5081      N5088   1.438       .  S
C5082      H5087   1.084       .  S
C5082      C5083   1.402       .  A
C5083      C5084   1.408       .  A
C5084      N5085   1.435       .  S
N5085      H5089   1.046       .  S
N5085      H5090   1.046       .  S
N5088      H5091   1.044       .  S
N5088      H5092   1.046       .  S
C5093      H5100   1.084       .  S
C5093      C5094   1.406       .  A
C5093      C5098   1.418       .  A
C5094      C5095   1.421       .  A
C5095      C5096   1.407       .  A
C5095      N5102   1.439       .  S
C5096      H5101   1.084       .  S
C5096      C5097   1.403       .  A
C5097      C5098   1.415       .  A
C5098      N5099   1.438       .  S
N5099      H5103   1.046       .  S
N5099      H5104   1.045       .  S
N5102      H5105   1.044       .  S
N5102      H5106   1.045       .  S
C5107      H5114   1.083       .  S
C5107      C5108   1.418       .  A
C5107      C5112   1.414       .  A
C5108      C5109   1.407       .  A
C5109      C5110   1.413       .  A
C5109      N5116   1.436       .  S
C5110      H5115   1.083       .  S
C5110      C5111   1.414       .  A
C5111      C5112   1.406       .  A
C5112      N5113   1.437       .  S
N5113      H5117   1.046       .  S
N5113      H5118   1.046       .  S
N5116      H5119   1.046       .  S
N5116      H5120   1.046       .  S
C5121      H5128   1.084       .  S
C5121      C5122   1.407       .  A
C5121      C5126   1.409       .  A
C5122      C5123   1.411       .  A
C5123      C5124   1.416       .  A
C5123      N5130   1.437       .  S
C5124      H5129   1.084       .  S
C5124      C5125   1.407       .  A
C5125      C5126   1.409       .  A
C5126      N5127   1.438       .  S
N5127      H5131   1.046       .  S
N5127      H5132   1.046       .  S
N5130      H5133   1.046       .  S
N5130      H5134   1.046       .  S
C5135      H5142   1.084       .  S
C5135      C5136   1.394       .  A
C5135      C5140   1.410       .  A
C5136      C5137   1.420       .  A
C5137      C5138   1.415       .  A
C5137      N5144   1.438       .  S
C5138      H5143   1.083       .  S
C5138      C5139   1.401       .  A
C5139      C5140   1.428       .  A
C5140      N5141   1.438       .  S
N5141      H5145   1.046       .  S
N5141      H5146   1.045       .  S
N5144      H5147   1.046       .  S
N5144      H5148   1.046       .  S
C5149      H5156   1.084       .  S
C5149      C5150   1.402       .  A
C5149      C5154   1.397       .  A
C5150      C5151   1.413       .  A
C5151      C5152   1.400       .  A
C5151      N5158   1.438       .  S
C5152      H5157   1.084       .  S
C5152      C5153   1.400       .  A
C5153      C5154   1.406       .  A
C5154      N5155   1.438       .  S
N5155      H5159   1.046       .  S
N5155      H5160   1.046       .  S
N5158      H5161   1.046       .  S
N5158      H5162   1.046       .  S
C5163      H5170   1.083       .  S
C5163      C5164   1.399       .  A
C5163      C5168   1.388       .  A
C5164      C5165   1.418       .  A
C5165      C5166   1.400       .  A
C5165      N5172   1.430       .  S
C5166      H5171   1.084       .  S
C5166      C5167   1.401       .  A
C5167      C5168   1.418       .  A
C5168      N5169   1.440       .  S
N5169      H5173   1.046       .  S
N5169      H5174   1.046       .  S
N5172      H5175   1.046       .  S
N5172      H5176   1.043       .  S
C5177      H5184   1.083       .  S
C5177      C5178   1.399       .  A
C5177      C5182   1.412   1_565  A
C5178      C5179   1.424       .  A
C5179      C5180   1.408   1_565  A
C5179      N5186   1.438       .  S
C5180      H5185   1.084       .  S
C5180      C5181   1.394       .  A
C5181      C5182   1.420       .  A
C5182      N5183   1.438       .  S
N5183      H5187   1.046       .  S
N5183      H5188   1.046       .  S
N5186      H5189   1.046       .  S
N5186      H5190   1.046   1_565  S
C5191      H5198   1.083       .  S
C5191      C5192   1.402       .  A
C5191      C5196   1.403   1_565  A
C5192      C5193   1.410       .  A
C5193      C5194   1.399       .  A
C5193      N5200   1.439       .  S
C5194      H5199   1.083       .  S
C5194      C5195   1.401       .  A
C5195      C5196   1.413   1_565  A
C5196      N5197   1.438       .  S
N5197      H5201   1.046       .  S
N5197      H5202   1.046       .  S
N5200      H5203   1.046       .  S
N5200      H5204   1.046       .  S
C5205      H5212   1.081       .  S
C5205      C5206   1.400       .  A
C5205      C5210   1.386       .  A
C5206      C5207   1.409       .  A
C5207      C5208   1.408       .  A
C5207      N5214   1.437       .  S
C5208      H5213   1.083       .  S
C5208      C5209   1.405       .  A
C5209      C5210   1.413       .  A
C5210      N5211   1.441       .  S
N5211      H5215   1.046       .  S
N5211      H5216   1.046       .  S
N5214      H5217   1.046       .  S
N5214      H5218   1.046       .  S
C5219      H5226   1.083       .  S
C5219      C5220   1.415       .  A
C5219      C5224   1.416       .  A
C5220      C5221   1.402       .  A
C5221      C5222   1.408       .  A
C5221      N5228   1.438       .  S
C5222      H5227   1.080       .  S
C5222      C5223   1.419       .  A
C5223      C5224   1.408       .  A
C5224      N5225   1.436       .  S
N5225      H5229   1.046       .  S
N5225      H5230   1.046       .  S
N5228      H5231   1.046       .  S
N5228      H5232   1.045       .  S
