geometry optimzed in LAMMPS
_audit_creation_date              2020-12-01 
_audit_creation_method            'lammps2cif' 
_symmetry_space_group_name_H-M    'P1' 
_symmetry_Int_Tables_number       1 
_symmetry_cell_setting            triclinic 
loop_ 
_symmetry_equiv_pos_as_xyz 
  x,y,z 
_cell_length_a                    38.45362986 
_cell_length_b                    38.291448698836085 
_cell_length_c                    33.262708990665644 
_cell_angle_alpha                 89.88854234014055 
_cell_angle_beta                  89.81894548397936 
_cell_angle_gamma                 91.11048397199482 
loop_ 
_atom_site_label 
_atom_site_type_symbol 
_atom_site_fract_x 
_atom_site_fract_y 
_atom_site_fract_z 
_atom_site_charge 
O1          O  0.02648592  0.28899095  0.53866360    -0.71900
O2          O  0.02829968  0.21754886  0.45990590    -0.72100
O3          O  0.02674733  0.28775799  0.45801058    -0.72000
O4          O  0.02788909  0.21852659  0.54030469    -0.72000
O5          O  0.47152472  0.21488898  0.53811498    -0.71900
O6          O  0.47029827  0.28699852  0.45991318    -0.72000
O7          O  0.47186038  0.21686027  0.45774248    -0.71900
O8          O  0.47010272  0.28517491  0.54046145    -0.72100
V9          V  0.02627669  0.25320897  0.49924140     1.35200
V10         V  0.47204013  0.25104880  0.49909618     1.35200
C11         C  0.49800909  0.29930518  0.55307414     0.77300
C12         C  0.00042761  0.20493132  0.44543776     0.77400
C13         C  0.99826256  0.29953427  0.44533087     0.77300
C14         C  0.49983277  0.20411388  0.55234602     0.77200
C15         C  0.00102534  0.50276065  0.24886255    -0.02600
C16         C  0.50059559  0.00167325  0.75010645    -0.02600
O17         O  0.21471176  0.47671419  0.96034248    -0.71900
O18         O  0.28589358  0.47739266  0.03974264    -0.72100
O19         O  0.21582464  0.47728894  0.04082254    -0.72000
O20         O  0.28493759  0.47667860  0.95922002    -0.72000
O21         O  0.28406367  0.03331262  0.95644307    -0.71900
O22         O  0.21879840  0.03396174  0.04231689    -0.72000
O23         O  0.28863064  0.03401346  0.03677457    -0.71900
O24         O  0.21417426  0.03336146  0.96197827    -0.72100
V25         V  0.25036793  0.47809621  0.00001188     1.35200
V26         V  0.25139617  0.03256588  0.99937293     1.35200
C27         C  0.20168662  0.00498540  0.94831540     0.77300
C28         C  0.29991613  0.00584237  0.05120711     0.77400
C29         C  0.20548135  0.00571139  0.05547602     0.77300
C30         C  0.29639194  0.00491424  0.94396266     0.77200
C31         C  0.03218271  0.00238931  0.77901809    -0.01400
C32         C  0.04006476  0.03321488  0.80042654    -0.09400
C33         C  0.06728750  0.03495779  0.82803087    -0.18300
C34         C  0.08722205  0.50532785  0.83679162     0.04100
C35         C  0.07787946  0.47345280  0.81750919     0.18300
C36         C  0.05073562  0.47220794  0.78921938    -0.19700
C37         C  0.09541314  0.44280164  0.82695267    -0.21000
C38         C  0.12228466  0.44318739  0.85486966    -0.19500
C39         C  0.13276769  0.47435184  0.87357481     0.19700
C40         C  0.11557908  0.50597088  0.86458210     0.01800
C41         C  0.12783629  0.03689033  0.88344615    -0.14200
C42         C  0.15571666  0.03633976  0.91024376    -0.11900
C43         C  0.17233771  0.00507318  0.91942247     0.01400
C44         C  0.16056367  0.47411185  0.90101987    -0.24100
H45         H  0.02503770  0.05644966  0.79542498     0.09400
H46         H  0.07158826  0.05975525  0.84261227     0.12900
H47         H  0.04355091  0.44721929  0.77625213     0.11700
H48         H  0.08824481  0.41828712  0.81268792     0.12800
H49         H  0.13523890  0.41897064  0.86153103     0.11900
H50         H  0.11677015  0.06203951  0.87770760     0.09000
H51         H  0.16424309  0.06065967  0.92394664     0.12200
H52         H  0.17329298  0.44976813  0.90772083     0.14100
C53         C  0.46887749  0.00397348  0.77883613    -0.01400
C54         C  0.45018706  0.53493097  0.78409636    -0.09400
C55         C  0.42167441  0.53620140  0.81002133    -0.18300
C56         C  0.41083713  0.50662971  0.83254423     0.04100
C57         C  0.43077827  0.47593979  0.82914354     0.18300
C58         C  0.45988223  0.47527849  0.80359630    -0.19700
C59         C  0.42148211  0.44595826  0.85110149    -0.21000
C60         C  0.39267999  0.44577819  0.87645094    -0.19500
C61         C  0.37261990  0.47566249  0.88069929     0.19700
C62         C  0.38134496  0.50656011  0.85880325     0.01800
C63         C  0.36027347  0.53606000  0.86439988    -0.14200
C64         C  0.33245730  0.53518188  0.89144995    -0.11900
C65         C  0.32430965  0.00484699  0.91333266     0.01400
C66         C  0.34418088  0.47498973  0.90730500    -0.24100
H67         H  0.45776399  0.55881472  0.76876906     0.09400
H68         H  0.40881950  0.56088756  0.81187421     0.12900
H69         H  0.47510469  0.45178456  0.80185393     0.11700
H70         H  0.43655299  0.42242872  0.84857660     0.12800
H71         H  0.38619312  0.42215335  0.89307944     0.11900
H72         H  0.36476429  0.56035701  0.84869124     0.09000
H73         H  0.31736076  0.55852622  0.89542947     0.12200
H74         H  0.33815326  0.45140864  0.92425636     0.14100
C75         C  0.17769587  0.00588050  0.08618779    -0.01400
C76         C  0.17119170  0.53606858  0.10840742    -0.09400
C77         C  0.14363456  0.53688626  0.13579885    -0.18300
C78         C  0.12121139  0.00749439  0.14131888     0.04100
C79         C  0.12816107  0.97686755  0.11881000     0.18300
C80         C  0.15636310  0.97622238  0.09199553    -0.19700
C81         C  0.10657528  0.94720603  0.12262361    -0.21000
C82         C  0.07795033  0.94732153  0.14817643    -0.19500
C83         C  0.07042048  0.97697655  0.17084518     0.19700
C84         C  0.09198575  0.00742120  0.16795994     0.01800
C85         C  0.08294843  0.53662110  0.19132639    -0.14200
C86         C  0.05427099  0.53537195  0.21707683    -0.11900
C87         C  0.03365477  0.50473443  0.22141991     0.01400
C88         C  0.04133669  0.97626420  0.19641622    -0.24100
H89         H  0.18742203  0.55927555  0.10449502     0.09400
H90         H  0.14038726  0.56104090  0.15177760     0.12900
H91         H  0.16107347  0.95280277  0.07468051     0.11700
H92         H  0.11170710  0.92381524  0.10546357     0.12800
H93         H  0.06162096  0.92399249  0.15029696     0.11900
H94         H  0.09728657  0.56104029  0.19015004     0.09000
H95         H  0.04800498  0.55915903  0.23269565     0.12200
H96         H  0.02478843  0.95302589  0.19761387     0.14100
C97         C  0.47024673  0.50321550  0.21882032    -0.01400
C98         C  0.46464143  0.03350202  0.19583279    -0.09400
C99         C  0.43729412  0.03532414  0.16848337    -0.18300
C100        C  0.41492144  0.50626804  0.16170310     0.04100
C101        C  0.42214924  0.47472852  0.18231888     0.18300
C102        C  0.44952192  0.47339001  0.21014331    -0.19700
C103        C  0.40216392  0.44450255  0.17482993    -0.21000
C104        C  0.37494826  0.44497174  0.14744136    -0.19500
C105        C  0.36659301  0.47583336  0.12737725     0.19700
C106        C  0.38616281  0.50708268  0.13456360     0.01800
C107        C  0.37581143  0.03780923  0.11459006    -0.14200
C108        C  0.34771751  0.03729352  0.08805009    -0.11900
C109        C  0.32905231  0.00624283  0.08030434     0.01400
C110        C  0.33865023  0.47560991  0.10021247    -0.24100
H111        H  0.48132042  0.05635617  0.19974177     0.09400
H112        H  0.43469853  0.05970892  0.15265687     0.12900
H113        H  0.45494125  0.44858633  0.22416509     0.11700
H114        H  0.40768423  0.42025001  0.19019209     0.12800
H115        H  0.36010867  0.42106827  0.14219520     0.11900
H116        H  0.38863351  0.06274771  0.11917689     0.09000
H117        H  0.34076187  0.06138372  0.07325598     0.12200
H118        H  0.32419831  0.45149361  0.09475781     0.14100
C119        C  0.99749481  0.32759533  0.41471864    -0.01400
C120        C  0.46648107  0.34492078  0.40687994    -0.09400
C121        C  0.46565568  0.37247581  0.37940986    -0.18300
C122        C  0.99603833  0.38364195  0.35863230     0.04100
C123        C  0.02712037  0.36502485  0.36544482     0.18300
C124        C  0.02766369  0.33757306  0.39353745    -0.19700
C125        C  0.05754436  0.37407455  0.34437837    -0.21000
C126        C  0.05787719  0.40148221  0.31689534    -0.19500
C127        C  0.02797193  0.42096953  0.31033990     0.19700
C128        C  0.99673813  0.41259103  0.33144004     0.01800
C129        C  0.46796347  0.43432279  0.32549703    -0.14200
C130        C  0.46994352  0.46262731  0.29913502    -0.11900
C131        C  0.00010632  0.46995628  0.27629994     0.01400
C132        C  0.02945014  0.44928228  0.28338798    -0.24100
H133        H  0.44270881  0.33748625  0.42251314     0.09400
H134        H  0.44078766  0.38435539  0.37496929     0.12900
H135        H  0.05168108  0.32396596  0.39893326     0.11700
H136        H  0.08127587  0.35985055  0.34919150     0.12800
H137        H  0.08186322  0.40777940  0.30103618     0.11900
H138        H  0.44377345  0.43072173  0.34152956     0.09000
H139        H  0.44744081  0.47902444  0.29625949     0.12200
H140        H  0.05412290  0.45574660  0.26929133     0.14100
C141        C  0.00133837  0.17630065  0.41577675    -0.01400
C142        C  0.03196783  0.15775695  0.40993419    -0.09400
C143        C  0.03277208  0.12942116  0.38370306    -0.18300
C144        C  0.50278776  0.11876900  0.36212787     0.04100
C145        C  0.47213386  0.13852132  0.36698446     0.18300
C146        C  0.47154260  0.16666560  0.39399118    -0.19700
C147        C  0.44226121  0.13005935  0.34485532    -0.21000
C148        C  0.44224285  0.10249366  0.31771558    -0.19500
C149        C  0.47182959  0.08218580  0.31274115     0.19700
C150        C  0.50223373  0.08951855  0.33557908     0.01800
C151        C  0.03041878  0.06671510  0.33162197    -0.14200
C152        C  0.02910211  0.03900484  0.30458053    -0.11900
C153        C  0.00030933  0.03344131  0.27916544     0.01400
C154        C  0.47102189  0.05441459  0.28519777    -0.24100
H155        H  0.05540618  0.16482660  0.42622502     0.09400
H156        H  0.05736131  0.11666168  0.38064215     0.12900
H157        H  0.44783378  0.18116834  0.39795490     0.11700
H158        H  0.41883837  0.14508333  0.34826912     0.12800
H159        H  0.41882890  0.09689861  0.30065043     0.11900
H160        H  0.05367369  0.06922630  0.34944659     0.09000
H161        H  0.05132620  0.02212653  0.30264739     0.12200
H162        H  0.44707756  0.04895951  0.26923550     0.14100
C163        C  0.49897488  0.46856162  0.72332790    -0.01400
C164        C  0.46779286  0.44953575  0.71649149    -0.09400
C165        C  0.46642124  0.42151072  0.68975830    -0.18300
C166        C  0.49610442  0.41154540  0.66783555     0.04100
C167        C  0.02738545  0.43118175  0.67371222     0.18300
C168        C  0.02828845  0.45960860  0.70032359    -0.19700
C169        C  0.05763350  0.42250069  0.65280531    -0.21000
C170        C  0.05753580  0.39458409  0.62617274    -0.19500
C171        C  0.02706859  0.37492640  0.61937062     0.19700
C172        C  0.49580016  0.38319399  0.63988522     0.01200
C173        C  0.46560857  0.36288156  0.63120521    -0.14200
C174        C  0.46647754  0.33572280  0.60325825    -0.11900
C175        C  0.49740952  0.32757854  0.58335177     0.01400
C176        C  0.02765596  0.34722493  0.59177259    -0.24100
H177        H  0.44366266  0.45682934  0.73060219     0.09400
H178        H  0.44151312  0.40847202  0.68659235     0.12900
H179        H  0.05212538  0.47495071  0.70341864     0.11700
H180        H  0.08160537  0.43734499  0.65718870     0.12800
H181        H  0.08143386  0.38848176  0.61054826     0.11900
H182        H  0.44083444  0.36742897  0.64524534     0.09000
H183        H  0.44273976  0.32097666  0.59726463     0.12200
H184        H  0.05169617  0.34133723  0.57629107     0.14100
C185        C  0.49982797  0.17474217  0.58141069    -0.01400
C186        C  0.46886884  0.15610839  0.58945900    -0.09400
C187        C  0.96837656  0.12751728  0.61547507    -0.18300
C188        C  0.99904316  0.11653941  0.63467032     0.04100
C189        C  0.03027337  0.13602139  0.62731479     0.18300
C190        C  0.03050764  0.16452085  0.60049643    -0.19700
C191        C  0.06097615  0.12707836  0.64703471    -0.21000
C192        C  0.06115845  0.09960561  0.67451831    -0.19500
C193        C  0.03085421  0.07979114  0.68221289     0.19700
C194        C  0.99965659  0.08736163  0.66147329     0.01800
C195        C  0.97058968  0.06498291  0.66786159    -0.14200
C196        C  0.47183643  0.03764519  0.69543593    -0.11900
C197        C  0.50154320  0.03196714  0.71904244     0.01400
C198        C  0.03162104  0.05235814  0.71043618    -0.24100
H199        H  0.44476095  0.16346779  0.57528759     0.09400
H200        H  0.94342862  0.11492743  0.62042333     0.12900
H201        H  0.05457516  0.17890710  0.59472643     0.11700
H202        H  0.08490126  0.14180153  0.64166523     0.12800
H203        H  0.08520905  0.09378912  0.68982865     0.11900
H204        H  0.94658641  0.06757362  0.65161074     0.09000
H205        H  0.44883393  0.02118899  0.69924010     0.12200
H206        H  0.05599460  0.04674376  0.72501480     0.14100
O207        O  0.02648652  0.78899062  0.53866346    -0.71900
O208        O  0.02829940  0.71754848  0.45990571    -0.72100
O209        O  0.02674784  0.78775766  0.45801040    -0.72000
O210        O  0.02788907  0.71852618  0.54030433    -0.72000
O211        O  0.47152447  0.71488931  0.53811489    -0.71900
O212        O  0.47029874  0.78699875  0.45991322    -0.72000
O213        O  0.47186009  0.71686044  0.45774245    -0.71900
O214        O  0.47010332  0.78517521  0.54046136    -0.72100
V215        V  0.02627686  0.75320861  0.49924121     1.35200
V216        V  0.47204022  0.75104904  0.49909614     1.35200
C217        C  0.49800989  0.79930510  0.55307407     0.77300
C218        C  0.00042713  0.70493119  0.44543769     0.77400
C219        C  0.99826319  0.79953422  0.44533077     0.77300
C220        C  0.49983240  0.70411385  0.55234588     0.77200
C221        C  0.00102724  0.00276064  0.24886256    -0.02600
C222        C  0.50059371  0.50167321  0.75010656    -0.02600
O223        O  0.21471377  0.97671420  0.96034229    -0.71900
O224        O  0.28589538  0.97739278  0.03974271    -0.72100
O225        O  0.21582644  0.97728891  0.04082244    -0.72000
O226        O  0.28493959  0.97667882  0.95922027    -0.72000
O227        O  0.28406191  0.53331238  0.95644294    -0.71900
O228        O  0.21879650  0.53396184  0.04231661    -0.72000
O229        O  0.28862870  0.53401340  0.03677449    -0.71900
O230        O  0.21417251  0.53336144  0.96197804    -0.72100
V231        V  0.25036983  0.97809630  0.00001188     1.35200
V232        V  0.25139433  0.53256580  0.99937278     1.35200
C233        C  0.20168481  0.50498539  0.94831527     0.77300
C234        C  0.29991437  0.50584227  0.05120688     0.77400
C235        C  0.20547948  0.50571153  0.05547591     0.77300
C236        C  0.29639004  0.50491397  0.94396246     0.77200
C237        C  0.03218071  0.50238917  0.77901843    -0.01400
C238        C  0.04006275  0.53321465  0.80042665    -0.09400
C239        C  0.06728557  0.53495748  0.82803112    -0.18300
C240        C  0.08722389  0.00532808  0.83679142     0.04100
C241        C  0.07788144  0.97345286  0.81750874     0.18300
C242        C  0.05073767  0.97220799  0.78921908    -0.19700
C243        C  0.09541525  0.94280187  0.82695231    -0.21000
C244        C  0.12228673  0.94318756  0.85486943    -0.19500
C245        C  0.13276959  0.97435217  0.87357458     0.19700
C246        C  0.11558101  0.00597107  0.86458185     0.01800
C247        C  0.12783439  0.53689022  0.88344616    -0.14200
C248        C  0.15571476  0.53633968  0.91024364    -0.11900
C249        C  0.17233579  0.50507308  0.91942243     0.01400
C250        C  0.16056562  0.97411194  0.90101980    -0.24100
H251        H  0.02503623  0.55644832  0.79542561     0.09400
H252        H  0.07158631  0.55975464  0.84261156     0.12900
H253        H  0.04355281  0.94721841  0.77625140     0.11700
H254        H  0.08824715  0.91828701  0.81268761     0.12800
H255        H  0.13524057  0.91897190  0.86153042     0.11900
H256        H  0.11676811  0.56203921  0.87770796     0.09000
H257        H  0.16424122  0.56065969  0.92394638     0.12200
H258        H  0.17329443  0.94976855  0.90772099     0.14100
C259        C  0.46887542  0.50397328  0.77883595    -0.01400
C260        C  0.45018901  0.03493120  0.78409638    -0.09400
C261        C  0.42167653  0.03620178  0.81002135    -0.18300
C262        C  0.41083928  0.00663013  0.83254462     0.04100
C263        C  0.43078064  0.97594016  0.82914429     0.18300
C264        C  0.45988435  0.97527882  0.80359684    -0.19700
C265        C  0.42148458  0.94595863  0.85110255    -0.21000
C266        C  0.39268263  0.94577856  0.87645212    -0.19500
C267        C  0.37262234  0.97566282  0.88070007     0.19700
C268        C  0.38134707  0.00656040  0.85880352     0.01800
C269        C  0.36027534  0.03606021  0.86439981    -0.14200
C270        C  0.33245911  0.03518218  0.89144969    -0.11900
C271        C  0.32430763  0.50484661  0.91333243     0.01400
C272        C  0.34418333  0.97499022  0.90730558    -0.24100
H273        H  0.45776653  0.05881561  0.76876869     0.09400
H274        H  0.40882153  0.06088878  0.81187468     0.12900
H275        H  0.47510704  0.95178426  0.80185444     0.11700
H276        H  0.43655600  0.92242918  0.84857831     0.12800
H277        H  0.38619536  0.92215331  0.89308045     0.11900
H278        H  0.36476611  0.06035727  0.84869008     0.09000
H279        H  0.31736187  0.05852692  0.89542873     0.12200
H280        H  0.33815598  0.95140885  0.92425755     0.14100
C281        C  0.17769395  0.50588072  0.08618764    -0.01400
C282        C  0.17119393  0.03606820  0.10840775    -0.09400
C283        C  0.14363686  0.03688581  0.13579938    -0.18300
C284        C  0.12120926  0.50749460  0.14131845     0.04100
C285        C  0.12815918  0.47686751  0.11880980     0.18300
C286        C  0.15636128  0.47622251  0.09199556    -0.19700
C287        C  0.10657331  0.44720594  0.12262369    -0.21000
C288        C  0.07794833  0.44732141  0.14817641    -0.19500
C289        C  0.07041847  0.47697645  0.17084496     0.19700
C290        C  0.09198341  0.50742115  0.16795929     0.01800
C291        C  0.08295085  0.03662106  0.19132706    -0.14200
C292        C  0.05427344  0.03537183  0.21707734    -0.11900
C293        C  0.03365686  0.00473439  0.22142013     0.01400
C294        C  0.04133467  0.47626415  0.19641605    -0.24100
H295        H  0.18742384  0.05927465  0.10449549     0.09400
H296        H  0.14038983  0.06104017  0.15177809     0.12900
H297        H  0.16107190  0.45280221  0.07468027     0.11700
H298        H  0.11170537  0.42381465  0.10546345     0.12800
H299        H  0.06161867  0.42399199  0.15029749     0.11900
H300        H  0.09728990  0.06104117  0.19015086     0.09000
H301        H  0.04800724  0.05915902  0.23269669     0.12200
H302        H  0.02478661  0.45302618  0.19761357     0.14100
C303        C  0.47024865  0.00321516  0.21882058    -0.01400
C304        C  0.46463918  0.53350265  0.19583294    -0.09400
C305        C  0.43729176  0.53532456  0.16848373    -0.18300
C306        C  0.41492346  0.00626779  0.16170325     0.04100
C307        C  0.42215093  0.97472841  0.18231936     0.18300
C308        C  0.44952368  0.97338979  0.21014374    -0.19700
C309        C  0.40216503  0.94450274  0.17483085    -0.21000
C310        C  0.37494929  0.94497213  0.14744245    -0.19500
C311        C  0.36659454  0.97583359  0.12737780     0.19700
C312        C  0.38616485  0.00708271  0.13456363     0.01800
C313        C  0.37580899  0.53780937  0.11459053    -0.14200
C314        C  0.34771519  0.53729352  0.08805056    -0.11900
C315        C  0.32905045  0.50624273  0.08030422     0.01400
C316        C  0.33865166  0.97561024  0.10021312    -0.24100
H317        H  0.48131841  0.55635685  0.19974187     0.09400
H318        H  0.43469583  0.55971027  0.15265640     0.12900
H319        H  0.45494282  0.94858562  0.22416614     0.11700
H320        H  0.40768465  0.92025046  0.19019308     0.12800
H321        H  0.36010940  0.92106880  0.14219696     0.11900
H322        H  0.38863010  0.56274784  0.11917838     0.09000
H323        H  0.34075943  0.56138416  0.07325641     0.12200
H324        H  0.32419933  0.95149414  0.09475888     0.14100
C325        C  0.99749544  0.82759518  0.41471849    -0.01400
C326        C  0.46648197  0.84492103  0.40687986    -0.09400
C327        C  0.46565669  0.87247609  0.37940984    -0.18300
C328        C  0.99603960  0.88364184  0.35863219     0.04100
C329        C  0.02712141  0.86502449  0.36544457     0.18300
C330        C  0.02766443  0.83757274  0.39353724    -0.19700
C331        C  0.05754542  0.87407388  0.34437803    -0.21000
C332        C  0.05787838  0.90148151  0.31689509    -0.19500
C333        C  0.02797334  0.92096929  0.31033977     0.19700
C334        C  0.99673948  0.91259105  0.33144005     0.01800
C335        C  0.46796502  0.93432316  0.32549724    -0.14200
C336        C  0.46994534  0.96262767  0.29913526    -0.11900
C337        C  0.00010799  0.96995637  0.27629993     0.01400
C338        C  0.02945169  0.94928205  0.28338804    -0.24100
H339        H  0.44271048  0.83748670  0.42251274     0.09400
H340        H  0.44078799  0.88435587  0.37496918     0.12900
H341        H  0.05168122  0.82396546  0.39893269     0.11700
H342        H  0.08127716  0.85984942  0.34919102     0.12800
H343        H  0.08186446  0.90777835  0.30103551     0.11900
H344        H  0.44377447  0.93072218  0.34153047     0.09000
H345        H  0.44744289  0.97902505  0.29625959     0.12200
H346        H  0.05412507  0.95574590  0.26929053     0.14100
C347        C  0.00133774  0.67630052  0.41577663    -0.01400
C348        C  0.03196721  0.65775683  0.40993378    -0.09400
C349        C  0.03277126  0.62942113  0.38370274    -0.18300
C350        C  0.50278658  0.61876876  0.36212783     0.04100
C351        C  0.47213267  0.63852095  0.36698483     0.18300
C352        C  0.47154156  0.66666526  0.39399150    -0.19700
C353        C  0.44225967  0.63005884  0.34485619    -0.21000
C354        C  0.44224113  0.60249320  0.31771639    -0.19500
C355        C  0.47182776  0.58218546  0.31274155     0.19700
C356        C  0.50223232  0.58951842  0.33557907     0.01800
C357        C  0.03041743  0.56671503  0.33162158    -0.14200
C358        C  0.02910067  0.53900478  0.30458019    -0.11900
C359        C  0.00030763  0.53344124  0.27916547     0.01400
C360        C  0.47101993  0.55441438  0.28519807    -0.24100
H361        H  0.05540628  0.66482686  0.42622452     0.09400
H362        H  0.05736107  0.61666134  0.38064130     0.12900
H363        H  0.44783300  0.68116796  0.39795519     0.11700
H364        H  0.41883694  0.64508255  0.34827054     0.12800
H365        H  0.41882675  0.59689794  0.30065122     0.11900
H366        H  0.05367269  0.56922625  0.34944624     0.09000
H367        H  0.05132471  0.52212665  0.30264662     0.12200
H368        H  0.44707528  0.54895914  0.26923561     0.14100
C369        C  0.49897656  0.96856153  0.72332796    -0.01400
C370        C  0.46779443  0.94953543  0.71649203    -0.09400
C371        C  0.46642267  0.92151044  0.68975896    -0.18300
C372        C  0.49610571  0.91154525  0.66783581     0.04100
C373        C  0.02738708  0.93118192  0.67371210     0.18300
C374        C  0.02829008  0.95960868  0.70032345    -0.19700
C375        C  0.05763482  0.92250081  0.65280468    -0.21000
C376        C  0.05753691  0.89458418  0.62617214    -0.19500
C377        C  0.02706953  0.87492643  0.61937048     0.19700
C378        C  0.49580138  0.88319381  0.63988559     0.01200
C379        C  0.46560987  0.86288129  0.63120582    -0.14200
C380        C  0.46647859  0.83572263  0.60325879    -0.11900
C381        C  0.49741062  0.82757840  0.58335183     0.01400
C382        C  0.02765675  0.84722495  0.59177242    -0.24100
H383        H  0.44366443  0.95682917  0.73060337     0.09400
H384        H  0.44151345  0.90847102  0.68659304     0.12900
H385        H  0.05212719  0.97495122  0.70341809     0.11700
H386        H  0.08160713  0.93734570  0.65718760     0.12800
H387        H  0.08143465  0.88848174  0.61054731     0.11900
H388        H  0.44083485  0.86742893  0.64524694     0.09000
H389        H  0.44274092  0.82097613  0.59726553     0.12200
H390        H  0.05169653  0.84133748  0.57629058     0.14100
C391        C  0.49982735  0.67474211  0.58141057    -0.01400
C392        C  0.46886813  0.65610838  0.58945873    -0.09400
C393        C  0.96837611  0.62751740  0.61547487    -0.18300
C394        C  0.99904257  0.61653953  0.63467025     0.04100
C395        C  0.03027302  0.63602158  0.62731485     0.18300
C396        C  0.03050739  0.66452090  0.60049637    -0.19700
C397        C  0.06097549  0.62707812  0.64703507    -0.21000
C398        C  0.06115753  0.59960542  0.67451870    -0.19500
C399        C  0.03085317  0.57979111  0.68221322     0.19700
C400        C  0.99965569  0.58736184  0.66147343     0.01800
C401        C  0.97058851  0.56498340  0.66786163    -0.14200
C402        C  0.47183482  0.53764529  0.69543610    -0.11900
C403        C  0.50154131  0.53196707  0.71904268     0.01400
C404        C  0.03161958  0.55235805  0.71043646    -0.24100
H405        H  0.44476075  0.66346799  0.57528731     0.09400
H406        H  0.94342843  0.61492773  0.62042251     0.12900
H407        H  0.05457651  0.67890801  0.59472615     0.11700
H408        H  0.08490120  0.64180168  0.64166539     0.12800
H409        H  0.08520857  0.59378861  0.68982989     0.11900
H410        H  0.94658565  0.56757437  0.65161173     0.09000
H411        H  0.44883115  0.52118903  0.69924035     0.12200
H412        H  0.05599313  0.54674338  0.72501523     0.14100
O413        O  0.52648596  0.28899093  0.53866361    -0.71900
O414        O  0.52829974  0.21754887  0.45990591    -0.72100
O415        O  0.52674731  0.28775799  0.45801056    -0.72000
O416        O  0.52788918  0.21852664  0.54030462    -0.72000
O417        O  0.97152463  0.21488900  0.53811492    -0.71900
O418        O  0.97029828  0.28699852  0.45991316    -0.72000
O419        O  0.97186041  0.21686029  0.45774250    -0.71900
O420        O  0.97010267  0.28517491  0.54046145    -0.72100
V421        V  0.52627672  0.25320898  0.49924138     1.35200
V422        V  0.97204010  0.25104881  0.49909617     1.35200
C423        C  0.99800905  0.29930519  0.55307412     0.77300
C424        C  0.50042767  0.20493132  0.44543777     0.77400
C425        C  0.49826252  0.29953426  0.44533089     0.77300
C426        C  0.99983262  0.20411385  0.55234603     0.77200
C427        C  0.50102532  0.50276064  0.24886257    -0.02600
C428        C  0.00059560  0.00167322  0.75010650    -0.02600
O429        O  0.71471182  0.47671417  0.96034248    -0.71900
O430        O  0.78589364  0.47739266  0.03974259    -0.72100
O431        O  0.71582471  0.47728893  0.04082251    -0.72000
O432        O  0.78493764  0.47667862  0.95922005    -0.72000
O433        O  0.78406374  0.03331261  0.95644298    -0.71900
O434        O  0.71879851  0.03396169  0.04231694    -0.72000
O435        O  0.78863067  0.03401351  0.03677456    -0.71900
O436        O  0.71417435  0.03336143  0.96197837    -0.72100
V437        V  0.75036798  0.47809621  0.00001188     1.35200
V438        V  0.75139623  0.03256585  0.99937294     1.35200
C439        C  0.70168675  0.00498539  0.94831538     0.77300
C440        C  0.79991623  0.00584248  0.05120707     0.77400
C441        C  0.70548134  0.00571135  0.05547598     0.77300
C442        C  0.79639200  0.00491423  0.94396262     0.77200
C443        C  0.53218261  0.00238936  0.77901815    -0.01400
C444        C  0.54006477  0.03321491  0.80042658    -0.09400
C445        C  0.56728750  0.03495779  0.82803091    -0.18300
C446        C  0.58722205  0.50532790  0.83679167     0.04100
C447        C  0.57787958  0.47345283  0.81750911     0.18300
C448        C  0.55073565  0.47220804  0.78921941    -0.19700
C449        C  0.59541324  0.44280152  0.82695277    -0.21000
C450        C  0.62228474  0.44318731  0.85486971    -0.19500
C451        C  0.63276771  0.47435185  0.87357476     0.19700
C452        C  0.61557913  0.50597091  0.86458196     0.01800
C453        C  0.62783636  0.03689026  0.88344616    -0.14200
C454        C  0.65571666  0.03633968  0.91024371    -0.11900
C455        C  0.67233776  0.00507307  0.91942248     0.01400
C456        C  0.66056366  0.47411191  0.90101988    -0.24100
H457        H  0.52503753  0.05644983  0.79542503     0.09400
H458        H  0.57158858  0.05975552  0.84261228     0.12900
H459        H  0.54355092  0.44721939  0.77625212     0.11700
H460        H  0.58824469  0.41828690  0.81268812     0.12800
H461        H  0.63523942  0.41897016  0.86153111     0.11900
H462        H  0.61677004  0.06203969  0.87770771     0.09000
H463        H  0.66424311  0.06065968  0.92394662     0.12200
H464        H  0.67329249  0.44976855  0.90772100     0.14100
C465        C  0.96887757  0.00397328  0.77883617    -0.01400
C466        C  0.95018717  0.53493096  0.78409633    -0.09400
C467        C  0.92167450  0.53620143  0.81002133    -0.18300
C468        C  0.91083711  0.50662967  0.83254428     0.04100
C469        C  0.93077820  0.47593985  0.82914368     0.18300
C470        C  0.95988215  0.47527854  0.80359633    -0.19700
C471        C  0.92148202  0.44595823  0.85110157    -0.21000
C472        C  0.89267994  0.44577816  0.87645098    -0.19500
C473        C  0.87261991  0.47566247  0.88069928     0.19700
C474        C  0.88134495  0.50656014  0.85880323     0.01800
C475        C  0.86027354  0.53606005  0.86439982    -0.14200
C476        C  0.83245737  0.53518194  0.89144981    -0.11900
C477        C  0.82430965  0.00484693  0.91333258     0.01400
C478        C  0.84418090  0.47498973  0.90730485    -0.24100
H479        H  0.95776433  0.55881497  0.76876911     0.09400
H480        H  0.90882002  0.56088727  0.81187427     0.12900
H481        H  0.97510407  0.45178498  0.80185378     0.11700
H482        H  0.93655307  0.42242857  0.84857672     0.12800
H483        H  0.88619273  0.42215308  0.89307951     0.11900
H484        H  0.86476470  0.56035726  0.84869129     0.09000
H485        H  0.81736074  0.55852635  0.89542930     0.12200
H486        H  0.83815327  0.45140859  0.92425620     0.14100
C487        C  0.67769590  0.00588044  0.08618778    -0.01400
C488        C  0.67119147  0.53606825  0.10840734    -0.09400
C489        C  0.64363437  0.53688595  0.13579884    -0.18300
C490        C  0.62121137  0.00749436  0.14131889     0.04100
C491        C  0.62816098  0.97686754  0.11880999     0.18300
C492        C  0.65636305  0.97622236  0.09199544    -0.19700
C493        C  0.60657505  0.94720596  0.12262367    -0.21000
C494        C  0.57795012  0.94732150  0.14817652    -0.19500
C495        C  0.57042036  0.97697648  0.17084522     0.19700
C496        C  0.59198564  0.00742120  0.16795988     0.01800
C497        C  0.58294855  0.53662151  0.19132646    -0.14200
C498        C  0.55427119  0.53537231  0.21707689    -0.11900
C499        C  0.53365492  0.50473466  0.22141999     0.01400
C500        C  0.54133664  0.97626423  0.19641626    -0.24100
H501        H  0.68742085  0.55927410  0.10449506     0.09400
H502        H  0.64038726  0.56104097  0.15177742     0.12900
H503        H  0.66107340  0.95280278  0.07468036     0.11700
H504        H  0.61170670  0.92381539  0.10546366     0.12800
H505        H  0.56162029  0.92399213  0.15029699     0.11900
H506        H  0.59728785  0.56104211  0.19015009     0.09000
H507        H  0.54800456  0.55915950  0.23269583     0.12200
H508        H  0.52478825  0.95302587  0.19761389     0.14100
C509        C  0.97024663  0.50321538  0.21882038    -0.01400
C510        C  0.96464129  0.03350193  0.19583277    -0.09400
C511        C  0.93729393  0.03532405  0.16848336    -0.18300
C512        C  0.91492140  0.50626802  0.16170303     0.04100
C513        C  0.92214908  0.47472851  0.18231889     0.18300
C514        C  0.94952182  0.47338992  0.21014335    -0.19700
C515        C  0.90216381  0.44450253  0.17482987    -0.21000
C516        C  0.87494817  0.44497183  0.14744132    -0.19500
C517        C  0.86659301  0.47583346  0.12737714     0.19700
C518        C  0.88616276  0.50708284  0.13456357     0.01800
C519        C  0.87581134  0.03780918  0.11459008    -0.14200
C520        C  0.84771741  0.03729347  0.08805013    -0.11900
C521        C  0.82905234  0.00624286  0.08030435     0.01400
C522        C  0.83865023  0.47560997  0.10021239    -0.24100
H523        H  0.98131975  0.05635568  0.19974173     0.09400
H524        H  0.93469840  0.05970877  0.15265705     0.12900
H525        H  0.95494108  0.44858633  0.22416510     0.11700
H526        H  0.90768375  0.42025018  0.19019198     0.12800
H527        H  0.86010865  0.42106843  0.14219534     0.11900
H528        H  0.88863295  0.06274728  0.11917691     0.09000
H529        H  0.84076183  0.06138357  0.07325616     0.12200
H530        H  0.82419838  0.45149371  0.09475766     0.14100
C531        C  0.49749465  0.32759531  0.41471875    -0.01400
C532        C  0.96648123  0.34492084  0.40687984    -0.09400
C533        C  0.96565572  0.37247594  0.37940977    -0.18300
C534        C  0.49603831  0.38364186  0.35863233     0.04100
C535        C  0.52712038  0.36502480  0.36544487     0.18300
C536        C  0.52766354  0.33757309  0.39353747    -0.19700
C537        C  0.55754427  0.37407457  0.34437841    -0.21000
C538        C  0.55787708  0.40148222  0.31689534    -0.19500
C539        C  0.52797171  0.42096950  0.31034003     0.19700
C540        C  0.49673811  0.41259095  0.33144007     0.01800
C541        C  0.96796357  0.43432284  0.32549697    -0.14200
C542        C  0.96994355  0.46262735  0.29913495    -0.11900
C543        C  0.50010606  0.46995625  0.27630002     0.01400
C544        C  0.52944996  0.44928227  0.28338797    -0.24100
H545        H  0.94270964  0.33748655  0.42251269     0.09400
H546        H  0.94078766  0.38435538  0.37496937     0.12900
H547        H  0.55168129  0.32396588  0.39893340     0.11700
H548        H  0.58127605  0.35985049  0.34919171     0.12800
H549        H  0.58186292  0.40777953  0.30103631     0.11900
H550        H  0.94377318  0.43072168  0.34152963     0.09000
H551        H  0.94744110  0.47902425  0.29625949     0.12200
H552        H  0.55412162  0.45574634  0.26929188     0.14100
C553        C  0.50133863  0.17630061  0.41577682    -0.01400
C554        C  0.53196818  0.15775689  0.40993428    -0.09400
C555        C  0.53277247  0.12942120  0.38370321    -0.18300
C556        C  0.00278734  0.11876907  0.36212781     0.04100
C557        C  0.97213350  0.13852146  0.36698441     0.18300
C558        C  0.97154233  0.16666574  0.39399118    -0.19700
C559        C  0.94226094  0.13005945  0.34485532    -0.21000
C560        C  0.94224271  0.10249379  0.31771558    -0.19500
C561        C  0.97182942  0.08218581  0.31274115     0.19700
C562        C  0.00223363  0.08951865  0.33557903     0.01800
C563        C  0.53041889  0.06671497  0.33162197    -0.14200
C564        C  0.52910229  0.03900472  0.30458056    -0.11900
C565        C  0.50030953  0.03344110  0.27916559     0.01400
C566        C  0.97102170  0.05441468  0.28519764    -0.24100
H567        H  0.55540714  0.16482701  0.42622561     0.09400
H568        H  0.55736268  0.11666118  0.38064199     0.12900
H569        H  0.94783373  0.18116846  0.39795491     0.11700
H570        H  0.91883745  0.14508369  0.34826938     0.12800
H571        H  0.91882870  0.09689850  0.30065025     0.11900
H572        H  0.55367357  0.06922637  0.34944643     0.09000
H573        H  0.55132692  0.02212602  0.30264766     0.12200
H574        H  0.94707733  0.04895954  0.26923537     0.14100
C575        C  0.99897479  0.46856157  0.72332787    -0.01400
C576        C  0.96779267  0.44953565  0.71649143    -0.09400
C577        C  0.96642100  0.42151063  0.68975824    -0.18300
C578        C  0.99610420  0.41154531  0.66783555     0.04100
C579        C  0.52738564  0.43118176  0.67371218     0.18300
C580        C  0.52828854  0.45960862  0.70032357    -0.19700
C581        C  0.55763366  0.42250072  0.65280521    -0.21000
C582        C  0.55753591  0.39458411  0.62617267    -0.19500
C583        C  0.52706861  0.37492639  0.61937064     0.19700
C584        C  0.99580022  0.38319395  0.63988516     0.01200
C585        C  0.96560870  0.36288150  0.63120512    -0.14200
C586        C  0.96647754  0.33572273  0.60325818    -0.11900
C587        C  0.99740951  0.32757853  0.58335173     0.01400
C588        C  0.52765594  0.34722493  0.59177264    -0.24100
H589        H  0.94366257  0.45682939  0.73060224     0.09400
H590        H  0.94151213  0.40847157  0.68659206     0.12900
H591        H  0.55212559  0.47495079  0.70341864     0.11700
H592        H  0.58160560  0.43734506  0.65718858     0.12800
H593        H  0.58143403  0.38848180  0.61054814     0.11900
H594        H  0.94083481  0.36742897  0.64524487     0.09000
H595        H  0.94273987  0.32097674  0.59726482     0.12200
H596        H  0.55169625  0.34133719  0.57629107     0.14100
C597        C  0.99982761  0.17474208  0.58141069    -0.01400
C598        C  0.96886863  0.15610836  0.58945896    -0.09400
C599        C  0.46837670  0.12751734  0.61547507    -0.18300
C600        C  0.49904335  0.11653954  0.63467027     0.04100
C601        C  0.53027379  0.13602161  0.62731472     0.18300
C602        C  0.53050798  0.16452098  0.60049639    -0.19700
C603        C  0.56097637  0.12707838  0.64703476    -0.21000
C604        C  0.56115861  0.09960568  0.67451833    -0.19500
C605        C  0.53085427  0.07979126  0.68221288     0.19700
C606        C  0.49965665  0.08736180  0.66147326     0.01800
C607        C  0.47058980  0.06498310  0.66786157    -0.14200
C608        C  0.97183641  0.03764507  0.69543594    -0.11900
C609        C  0.00154306  0.03196703  0.71904250     0.01400
C610        C  0.53162110  0.05235825  0.71043618    -0.24100
H611        H  0.94476053  0.16346811  0.57528746     0.09400
H612        H  0.44342879  0.11492761  0.62042322     0.12900
H613        H  0.55457637  0.17890764  0.59472616     0.11700
H614        H  0.58490244  0.14180188  0.64166515     0.12800
H615        H  0.58520897  0.09378900  0.68982880     0.11900
H616        H  0.44658604  0.06757399  0.65161085     0.09000
H617        H  0.94883307  0.02118853  0.69924035     0.12200
H618        H  0.55599466  0.04674381  0.72501484     0.14100
O619        O  0.52648663  0.78899058  0.53866340    -0.71900
O620        O  0.52829938  0.71754850  0.45990571    -0.72100
O621        O  0.52674777  0.78775769  0.45801038    -0.72000
O622        O  0.52788902  0.71852614  0.54030434    -0.72000
O623        O  0.97152451  0.71488928  0.53811490    -0.71900
O624        O  0.97029881  0.78699879  0.45991319    -0.72000
O625        O  0.97186002  0.71686049  0.45774244    -0.71900
O626        O  0.97010332  0.78517514  0.54046137    -0.72100
V627        V  0.52627685  0.75320862  0.49924119     1.35200
V628        V  0.97204025  0.75104905  0.49909613     1.35200
C629        C  0.99800980  0.79930511  0.55307412     0.77300
C630        C  0.50042719  0.70493116  0.44543768     0.77400
C631        C  0.49826304  0.79953417  0.44533071     0.77300
C632        C  0.99983248  0.70411387  0.55234587     0.77200
C633        C  0.50102730  0.00276058  0.24886263    -0.02600
C634        C  0.00059373  0.50167320  0.75010652    -0.02600
O635        O  0.71471383  0.97671417  0.96034230    -0.71900
O636        O  0.78589545  0.97739286  0.03974276    -0.72100
O637        O  0.71582644  0.97728886  0.04082250    -0.72000
O638        O  0.78493960  0.97667883  0.95922028    -0.72000
O639        O  0.78406199  0.53331240  0.95644303    -0.71900
O640        O  0.71879650  0.53396185  0.04231659    -0.72000
O641        O  0.78862880  0.53401341  0.03677453    -0.71900
O642        O  0.71417260  0.53336142  0.96197802    -0.72100
V643        V  0.75036985  0.97809628  0.00001193     1.35200
V644        V  0.75139440  0.53256581  0.99937282     1.35200
C645        C  0.70168487  0.50498537  0.94831528     0.77300
C646        C  0.79991441  0.50584228  0.05120690     0.77400
C647        C  0.70547955  0.50571150  0.05547593     0.77300
C648        C  0.79639007  0.50491398  0.94396244     0.77200
C649        C  0.53218064  0.50238933  0.77901846    -0.01400
C650        C  0.54006275  0.53321480  0.80042668    -0.09400
C651        C  0.56728560  0.53495761  0.82803107    -0.18300
C652        C  0.58722392  0.00532810  0.83679144     0.04100
C653        C  0.57788142  0.97345289  0.81750871     0.18300
C654        C  0.55073761  0.97220804  0.78921905    -0.19700
C655        C  0.59541522  0.94280187  0.82695242    -0.21000
C656        C  0.62228671  0.94318751  0.85486951    -0.19500
C657        C  0.63276969  0.97435206  0.87357461     0.19700
C658        C  0.61558098  0.00597103  0.86458195     0.01800
C659        C  0.62783449  0.53689025  0.88344607    -0.14200
C660        C  0.65571482  0.53633969  0.91024364    -0.11900
C661        C  0.67233585  0.50507316  0.91942242     0.01400
C662        C  0.66056566  0.97411186  0.90101982    -0.24100
H663        H  0.52503551  0.55644891  0.79542575     0.09400
H664        H  0.57158671  0.55975506  0.84261170     0.12900
H665        H  0.54355279  0.94721852  0.77625123     0.11700
H666        H  0.58824711  0.91828699  0.81268771     0.12800
H667        H  0.63524058  0.91897177  0.86153057     0.11900
H668        H  0.61676829  0.56203934  0.87770778     0.09000
H669        H  0.66424135  0.56065973  0.92394629     0.12200
H670        H  0.67329492  0.94976799  0.90772102     0.14100
C671        C  0.96887537  0.50397335  0.77883586    -0.01400
C672        C  0.95018911  0.03493099  0.78409635    -0.09400
C673        C  0.92167650  0.03620158  0.81002126    -0.18300
C674        C  0.91083934  0.00662995  0.83254454     0.04100
C675        C  0.93078074  0.97594004  0.82914424     0.18300
C676        C  0.95988453  0.97527870  0.80359686    -0.19700
C677        C  0.92148465  0.94595872  0.85110256    -0.21000
C678        C  0.89268268  0.94577862  0.87645211    -0.19500
C679        C  0.87262226  0.97566278  0.88069998     0.19700
C680        C  0.88134708  0.00656036  0.85880357     0.01800
C681        C  0.86027530  0.03606019  0.86439967    -0.14200
C682        C  0.83245908  0.03518210  0.89144961    -0.11900
C683        C  0.82430768  0.50484664  0.91333233     0.01400
C684        C  0.84418331  0.97499019  0.90730559    -0.24100
H685        H  0.95776612  0.05881503  0.76876883     0.09400
H686        H  0.90882193  0.06088770  0.81187412     0.12900
H687        H  0.97510769  0.95178387  0.80185462     0.11700
H688        H  0.93655603  0.92242930  0.84857847     0.12800
H689        H  0.88619577  0.92215363  0.89308047     0.11900
H690        H  0.86476589  0.06035683  0.84869014     0.09000
H691        H  0.81736191  0.05852688  0.89542870     0.12200
H692        H  0.83815578  0.95140865  0.92425764     0.14100
C693        C  0.67769379  0.50588040  0.08618755    -0.01400
C694        C  0.67119394  0.03606808  0.10840773    -0.09400
C695        C  0.64363688  0.03688578  0.13579939    -0.18300
C696        C  0.62120914  0.50749458  0.14131848     0.04100
C697        C  0.62815904  0.47686745  0.11880981     0.18300
C698        C  0.65636119  0.47622233  0.09199549    -0.19700
C699        C  0.60657319  0.44720590  0.12262375    -0.21000
C700        C  0.57794828  0.44732155  0.14817645    -0.19500
C701        C  0.57041860  0.47697675  0.17084502     0.19700
C702        C  0.59198357  0.50742154  0.16795940     0.01800
C703        C  0.58295083  0.03662108  0.19132704    -0.14200
C704        C  0.55427342  0.03537184  0.21707735    -0.11900
C705        C  0.53365683  0.00473440  0.22142012     0.01400
C706        C  0.54133484  0.47626436  0.19641608    -0.24100
H707        H  0.68742398  0.05927449  0.10449562     0.09400
H708        H  0.64039020  0.06103991  0.15177822     0.12900
H709        H  0.66107177  0.45280217  0.07468021     0.11700
H710        H  0.61170491  0.42381477  0.10546349     0.12800
H711        H  0.56161863  0.42399217  0.15029745     0.11900
H712        H  0.59728977  0.06104109  0.19015069     0.09000
H713        H  0.54800715  0.05915907  0.23269665     0.12200
H714        H  0.52478732  0.45302675  0.19761374     0.14100
C715        C  0.97024855  0.00321505  0.21882048    -0.01400
C716        C  0.96463904  0.53350255  0.19583300    -0.09400
C717        C  0.93729165  0.53532444  0.16848375    -0.18300
C718        C  0.91492336  0.00626773  0.16170320     0.04100
C719        C  0.92215072  0.97472839  0.18231934     0.18300
C720        C  0.94952356  0.97338972  0.21014366    -0.19700
C721        C  0.90216487  0.94450261  0.17483078    -0.21000
C722        C  0.87494916  0.94497204  0.14744236    -0.19500
C723        C  0.86659448  0.97583353  0.12737785     0.19700
C724        C  0.88616479  0.00708261  0.13456360     0.01800
C725        C  0.87580899  0.53780955  0.11459047    -0.14200
C726        C  0.84771522  0.53729368  0.08805049    -0.11900
C727        C  0.82905047  0.50624283  0.08030419     0.01400
C728        C  0.83865167  0.97561026  0.10021312    -0.24100
H729        H  0.98131771  0.55635635  0.19974186     0.09400
H730        H  0.93469591  0.55971026  0.15265654     0.12900
H731        H  0.95494242  0.94858585  0.22416604     0.11700
H732        H  0.90768452  0.92025043  0.19019314     0.12800
H733        H  0.86010871  0.92106835  0.14219689     0.11900
H734        H  0.88863060  0.56274840  0.11917833     0.09000
H735        H  0.84075902  0.56138460  0.07325635     0.12200
H736        H  0.82419978  0.95149440  0.09475867     0.14100
C737        C  0.49749542  0.82759523  0.41471844    -0.01400
C738        C  0.96648216  0.84492093  0.40687991    -0.09400
C739        C  0.96565686  0.87247604  0.37940982    -0.18300
C740        C  0.49603923  0.88364193  0.35863225     0.04100
C741        C  0.52712111  0.86502458  0.36544462     0.18300
C742        C  0.52766430  0.83757282  0.39353723    -0.19700
C743        C  0.55754513  0.87407391  0.34437809    -0.21000
C744        C  0.55787818  0.90148157  0.31689506    -0.19500
C745        C  0.52797312  0.92096924  0.31033984     0.19700
C746        C  0.49673933  0.91259105  0.33144014     0.01800
C747        C  0.96796501  0.93432323  0.32549712    -0.14200
C748        C  0.96994523  0.96262775  0.29913521    -0.11900
C749        C  0.50010806  0.96995627  0.27630001     0.01400
C750        C  0.52945167  0.94928203  0.28338798    -0.24100
H751        H  0.94271015  0.83748665  0.42251289     0.09400
H752        H  0.94078938  0.88435533  0.37496942     0.12900
H753        H  0.55168138  0.82396540  0.39893271     0.11700
H754        H  0.58127609  0.85984987  0.34919071     0.12800
H755        H  0.58186388  0.90777812  0.30103613     0.11900
H756        H  0.94377463  0.93072209  0.34153032     0.09000
H757        H  0.94744193  0.97902554  0.29625937     0.12200
H758        H  0.55412430  0.95574585  0.26929090     0.14100
C759        C  0.50133781  0.67630046  0.41577660    -0.01400
C760        C  0.53196730  0.65775673  0.40993371    -0.09400
C761        C  0.53277141  0.62942108  0.38370272    -0.18300
C762        C  0.00278631  0.61876888  0.36212784     0.04100
C763        C  0.97213237  0.63852107  0.36698481     0.18300
C764        C  0.97154142  0.66666535  0.39399148    -0.19700
C765        C  0.94225953  0.63005889  0.34485613    -0.21000
C766        C  0.94224102  0.60249329  0.31771639    -0.19500
C767        C  0.97182780  0.58218553  0.31274159     0.19700
C768        C  0.00223228  0.58951850  0.33557908     0.01800
C769        C  0.53041738  0.56671500  0.33162161    -0.14200
C770        C  0.52910062  0.53900479  0.30458021    -0.11900
C771        C  0.50030752  0.53344120  0.27916550     0.01400
C772        C  0.97101998  0.55441441  0.28519810    -0.24100
H773        H  0.55540627  0.66482702  0.42622455     0.09400
H774        H  0.55736221  0.61666090  0.38064106     0.12900
H775        H  0.94783282  0.68116808  0.39795514     0.11700
H776        H  0.91883577  0.64508304  0.34827067     0.12800
H777        H  0.91882693  0.59689789  0.30065121     0.11900
H778        H  0.55367272  0.56922622  0.34944644     0.09000
H779        H  0.55132454  0.52212678  0.30264671     0.12200
H780        H  0.94707550  0.54895924  0.26923576     0.14100
C781        C  0.99897638  0.96856161  0.72332806    -0.01400
C782        C  0.96779437  0.94953554  0.71649213    -0.09400
C783        C  0.96642264  0.92151056  0.68975909    -0.18300
C784        C  0.99610583  0.91154540  0.66783588     0.04100
C785        C  0.52738704  0.93118190  0.67371206     0.18300
C786        C  0.52829006  0.95960866  0.70032340    -0.19700
C787        C  0.55763488  0.92250086  0.65280473    -0.21000
C788        C  0.55753694  0.89458422  0.62617220    -0.19500
C789        C  0.52706974  0.87492635  0.61937035     0.19700
C790        C  0.99580135  0.88319390  0.63988567     0.01200
C791        C  0.96560978  0.86288133  0.63120585    -0.14200
C792        C  0.96647845  0.83572261  0.60325881    -0.11900
C793        C  0.99741031  0.82757841  0.58335193     0.01400
C794        C  0.52765700  0.84722494  0.59177232    -0.24100
H795        H  0.94366324  0.95682941  0.73060386     0.09400
H796        H  0.94151452  0.90847141  0.68659321     0.12900
H797        H  0.55212722  0.97495128  0.70341813     0.11700
H798        H  0.58160694  0.93734567  0.65718760     0.12800
H799        H  0.58143491  0.88848181  0.61054729     0.11900
H800        H  0.94083499  0.86742891  0.64524678     0.09000
H801        H  0.94274068  0.82097601  0.59726547     0.12200
H802        H  0.55169777  0.84133724  0.57628998     0.14100
C803        C  0.99982761  0.67474225  0.58141054    -0.01400
C804        C  0.96886841  0.65610847  0.58945870    -0.09400
C805        C  0.46837577  0.62751731  0.61547492    -0.18300
C806        C  0.49904219  0.61653937  0.63467029     0.04100
C807        C  0.53027270  0.63602149  0.62731487     0.18300
C808        C  0.53050709  0.66452078  0.60049641    -0.19700
C809        C  0.56097525  0.62707824  0.64703490    -0.21000
C810        C  0.56115734  0.59960549  0.67451855    -0.19500
C811        C  0.53085287  0.57979110  0.68221309     0.19700
C812        C  0.49965547  0.58736173  0.66147348     0.01800
C813        C  0.47058828  0.56498316  0.66786173    -0.14200
C814        C  0.97183490  0.53764542  0.69543603    -0.11900
C815        C  0.00154150  0.53196717  0.71904265     0.01400
C816        C  0.53161945  0.55235802  0.71043638    -0.24100
H817        H  0.94476079  0.66346789  0.57528740     0.09400
H818        H  0.44342735  0.61492727  0.62042273     0.12900
H819        H  0.55457549  0.67890755  0.59472636     0.11700
H820        H  0.58490108  0.64180178  0.64166533     0.12800
H821        H  0.58520747  0.59378897  0.68982926     0.11900
H822        H  0.44658572  0.56757406  0.65161176     0.09000
H823        H  0.94883216  0.52118959  0.69924002     0.12200
H824        H  0.55599294  0.54674342  0.72501507     0.14100
loop_ 
_geom_bond_atom_site_label_1 
_geom_bond_atom_site_label_2 
_geom_bond_distance 
_geom_bond_site_symmetry_2 
_ccdc_geom_bond_type 
O1            V9   1.898       .  S
O1          C423   1.265   1_455  A
O2            V9   1.896       .  S
O2           C12   1.264       .  A
O3            V9   1.903       .  S
O3           C13   1.266   1_455  A
O4            V9   1.905       .  S
O4          C426   1.266   1_455  A
O5           V10   1.896       .  S
O5           C14   1.265       .  A
O6           V10   1.896       .  S
O6          C425   1.264       .  A
O7           V10   1.901       .  S
O7          C424   1.265       .  A
O8           V10   1.902       .  S
O8           C11   1.266       .  A
V9          V422   2.086   1_455  T
V10         V421   2.086       .  T
C11         O413   1.265       .  A
C11         C175   1.481       .  S
C12         O419   1.265   1_455  A
C12         C141   1.477       .  S
C13         O418   1.264       .  A
C13         C119   1.480       .  S
C14         O416   1.266       .  A
C14         C185   1.482       .  S
C15          C87   1.550       .  S
C15         C131   1.551       .  S
C15         C509   1.552   1_455  S
C15         C359   1.550       .  S
C16          C53   1.551       .  S
C16         C197   1.552       .  S
C16         C443   1.551       .  S
C16         C369   1.551   1_545  S
O17          V25   1.906   1_556  S
O17         C233   1.266       .  A
O18          V25   1.904       .  S
O18         C234   1.266       .  A
O19          V25   1.896       .  S
O19         C235   1.264       .  A
O20          V25   1.898   1_556  S
O20         C236   1.264       .  A
O21          V26   1.899       .  S
O21          C30   1.265       .  A
O22          V26   1.899   1_554  S
O22          C29   1.265       .  A
O23          V26   1.900   1_554  S
O23          C28   1.265       .  A
O24          V26   1.900       .  S
O24          C27   1.265       .  A
V25         V232   2.085   1_554  T
V26         V231   2.085   1_546  T
C27         O223   1.266   1_545  A
C27          C43   1.485       .  S
C28         O224   1.266   1_545  A
C28         C109   1.483       .  S
C29         O225   1.264   1_545  A
C29          C75   1.476       .  S
C30         O226   1.264   1_545  A
C30          C65   1.478       .  S
C31         C428   1.551       .  S
C31          C32   1.408       .  A
C31         C242   1.411   1_545  A
C32          C33   1.395       .  A
C32          H45   1.083       .  S
C33         C240   1.412       .  A
C33          H46   1.077       .  S
C34          C40   1.432       .  A
C34          C35   1.420       .  A
C34         C239   1.412       .  A
C35          C37   1.400       .  A
C35          C36   1.408       .  A
C36         C237   1.411       .  A
C36          H47   1.082       .  S
C37          C38   1.391       .  A
C37          H48   1.084       .  S
C38          C39   1.400       .  A
C38          H49   1.084       .  S
C39          C40   1.422       .  A
C39          C44   1.408       .  A
C40         C247   1.414       .  A
C41          C42   1.397       .  A
C41         C246   1.414       .  A
C41          H50   1.077       .  S
C42          C43   1.402       .  A
C42          H51   1.083       .  S
C43         C250   1.403   1_545  A
C44         C249   1.403       .  A
C44          H52   1.084       .  S
C53         C260   1.409       .  A
C53         C264   1.409   1_545  A
C54          C55   1.394       .  A
C54         C259   1.409       .  A
C54          H67   1.081       .  S
C55          C56   1.412       .  A
C55          H68   1.077       .  S
C56          C62   1.429       .  A
C56          C57   1.420       .  A
C57          C59   1.399       .  A
C57          C58   1.404       .  A
C58         C259   1.409       .  A
C58          H69   1.084       .  S
C59          C60   1.390       .  A
C59          H70   1.084       .  S
C60          C61   1.400       .  A
C60          H71   1.084       .  S
C61          C62   1.422       .  A
C61          C66   1.404       .  A
C62          C63   1.415       .  A
C63          C64   1.395       .  A
C63          H72   1.077       .  S
C64         C271   1.399       .  A
C64          H73   1.083       .  S
C65         C270   1.399       .  A
C65         C272   1.402   1_545  A
C66         C271   1.402       .  A
C66          H74   1.084       .  S
C75          C80   1.401   1_545  A
C75         C282   1.399       .  A
C76          C77   1.396       .  A
C76         C281   1.399       .  A
C76          H89   1.083       .  S
C77         C284   1.416       .  A
C77          H90   1.077       .  S
C78          C84   1.429       .  A
C78          C79   1.422   1_545  A
C78         C283   1.416       .  A
C79          C81   1.399       .  A
C79          C80   1.403       .  A
C80          H91   1.085       .  S
C81          C82   1.389       .  A
C81          H92   1.084       .  S
C82          C83   1.399       .  A
C82          H93   1.084       .  S
C83          C84   1.420   1_565  A
C83          C88   1.403       .  A
C84         C291   1.411       .  A
C85          C86   1.394       .  A
C85         C290   1.411       .  A
C85          H94   1.077       .  S
C86          C87   1.410       .  A
C86          H95   1.080       .  S
C87         C294   1.408       .  A
C88         C293   1.408   1_565  A
C88          H96   1.084       .  S
C97         C427   1.552       .  S
C97         C102   1.411       .  A
C97         C304   1.408       .  A
C98          C99   1.395       .  A
C98         C303   1.408       .  A
C98         H111   1.083       .  S
C99         C306   1.412       .  A
C99         H112   1.077       .  S
C100        C106   1.431       .  A
C100        C101   1.420       .  A
C100        C305   1.412       .  A
C101        C103   1.400       .  A
C101        C102   1.405       .  A
C102        H113   1.081       .  S
C103        C104   1.390       .  A
C103        H114   1.084       .  S
C104        C105   1.399       .  A
C104        H115   1.084       .  S
C105        C106   1.422       .  A
C105        C110   1.406       .  A
C106        C313   1.415       .  A
C107        C108   1.397       .  A
C107        C312   1.415       .  A
C107        H116   1.078       .  S
C108        C109   1.402       .  A
C108        H117   1.083       .  S
C109        C316   1.402   1_545  A
C110        C315   1.402       .  A
C110        H118   1.084       .  S
C119        C124   1.402   1_655  A
C119        C532   1.401       .  A
C120        C121   1.395       .  A
C120        C531   1.401       .  A
C120        H133   1.083       .  S
C121        C534   1.414       .  A
C121        H134   1.077       .  S
C122        C128   1.429       .  A
C122        C123   1.422   1_655  A
C122        C533   1.414       .  A
C123        C125   1.399       .  A
C123        C124   1.406       .  A
C124        H135   1.084       .  S
C125        C126   1.390       .  A
C125        H136   1.084       .  S
C126        C127   1.400       .  A
C126        H137   1.084       .  S
C127        C128   1.420   1_455  A
C127        C132   1.406       .  A
C128        C541   1.411       .  A
C129        C130   1.394       .  A
C129        C540   1.411       .  A
C129        H138   1.077       .  S
C130        C543   1.408       .  A
C130        H139   1.083       .  S
C131        C132   1.411       .  A
C131        C542   1.408   1_455  A
C132        H140   1.081       .  S
C141        C142   1.400       .  A
C141        C558   1.401   1_455  A
C142        C143   1.394       .  A
C142        H155   1.083       .  S
C143        C556   1.414       .  A
C143        H156   1.077       .  S
C144        C150   1.428       .  A
C144        C145   1.422       .  A
C144        C555   1.414       .  A
C145        C147   1.399       .  A
C145        C146   1.405       .  A
C146        C553   1.401       .  A
C146        H157   1.084       .  S
C147        C148   1.390       .  A
C147        H158   1.084       .  S
C148        C149   1.400       .  A
C148        H159   1.084       .  S
C149        C150   1.420       .  A
C149        C154   1.405       .  A
C150        C563   1.411       .  A
C151        C152   1.393       .  A
C151        C562   1.411       .  A
C151        H160   1.077       .  S
C152        C153   1.408       .  A
C152        H161   1.083       .  S
C153        C221   1.550       .  S
C153        C566   1.410   1_455  A
C154        C565   1.410       .  A
C154        H162   1.081       .  S
C163        C222   1.551       .  S
C163        C164   1.410       .  A
C163        C580   1.409       .  A
C164        C165   1.395       .  A
C164        H177   1.080       .  S
C165        C166   1.412       .  A
C165        H178   1.077       .  S
C166        C172   1.431       .  A
C166        C579   1.420       .  A
C167        C169   1.399       .  A
C167        C168   1.404       .  A
C167        C578   1.420   1_455  A
C168        C575   1.409   1_455  A
C168        H179   1.084       .  S
C169        C170   1.390       .  A
C169        H180   1.084       .  S
C170        C171   1.399       .  A
C170        H181   1.084       .  S
C171        C176   1.405       .  A
C171        C584   1.422   1_455  A
C172        C173   1.416       .  A
C172        C583   1.422       .  A
C173        C174   1.397       .  A
C173        H182   1.077       .  S
C174        C175   1.400       .  A
C174        H183   1.083       .  S
C175        C588   1.402       .  A
C176        C587   1.402   1_455  A
C176        H184   1.084       .  S
C185        C186   1.401       .  A
C185        C602   1.403       .  A
C186        C599   1.394       .  A
C186        H199   1.083       .  S
C187        C188   1.413       .  A
C187        C598   1.394       .  A
C187        H200   1.077       .  S
C188        C194   1.429       .  A
C188        C189   1.422   1_655  A
C189        C191   1.400       .  A
C189        C190   1.408       .  A
C190        C597   1.403   1_455  A
C190        H201   1.084       .  S
C191        C192   1.392       .  A
C191        H202   1.084       .  S
C192        C193   1.401       .  A
C192        H203   1.084       .  S
C193        C194   1.420   1_455  A
C193        C198   1.408       .  A
C194        C195   1.410       .  A
C195        C608   1.392       .  A
C195        H204   1.077       .  S
C196        C197   1.408       .  A
C196        C607   1.392       .  A
C196        H205   1.083       .  S
C197        C610   1.411       .  A
C198        C609   1.411       .  A
C198        H206   1.082       .  S
O207        V215   1.898       .  S
O207        C629   1.265   1_455  A
O208        V215   1.896       .  S
O208        C218   1.264       .  A
O209        V215   1.903       .  S
O209        C219   1.266   1_455  A
O210        V215   1.905       .  S
O210        C632   1.266   1_455  A
O211        V216   1.896       .  S
O211        C220   1.265       .  A
O212        V216   1.896       .  S
O212        C631   1.264       .  A
O213        V216   1.901       .  S
O213        C630   1.265       .  A
O214        V216   1.902       .  S
O214        C217   1.266       .  A
V215        V628   2.086   1_455  T
V216        V627   2.086       .  T
C217        O619   1.265       .  A
C217        C381   1.481       .  S
C218        O625   1.265   1_455  A
C218        C347   1.477       .  S
C219        O624   1.264       .  A
C219        C325   1.480       .  S
C220        O622   1.266       .  A
C220        C391   1.482       .  S
C221        C293   1.550       .  S
C221        C715   1.552   1_455  S
C221        C337   1.551   1_545  S
C222        C649   1.551       .  S
C222        C259   1.551       .  S
C222        C403   1.552       .  S
O223        V231   1.906   1_556  S
O224        V231   1.904       .  S
O225        V231   1.896       .  S
O226        V231   1.898   1_556  S
O227        V232   1.899       .  S
O227        C236   1.265       .  A
O228        V232   1.899   1_554  S
O228        C235   1.265       .  A
O229        V232   1.900   1_554  S
O229        C234   1.265       .  A
O230        V232   1.900       .  S
O230        C233   1.265       .  A
C233        C249   1.485       .  S
C234        C315   1.483       .  S
C235        C281   1.476       .  S
C236        C271   1.478       .  S
C237        C634   1.551       .  S
C237        C238   1.408       .  A
C238        C239   1.395       .  A
C238        H251   1.083       .  S
C239        H252   1.077       .  S
C240        C246   1.432       .  A
C240        C241   1.420   1_545  A
C241        C243   1.400       .  A
C241        C242   1.408       .  A
C242        H253   1.082       .  S
C243        C244   1.391       .  A
C243        H254   1.084       .  S
C244        C245   1.400       .  A
C244        H255   1.084       .  S
C245        C246   1.422   1_565  A
C245        C250   1.408       .  A
C247        C248   1.397       .  A
C247        H256   1.077       .  S
C248        C249   1.402       .  A
C248        H257   1.083       .  S
C250        H258   1.084       .  S
C260        C261   1.394       .  A
C260        H273   1.081       .  S
C261        C262   1.412       .  A
C261        H274   1.077       .  S
C262        C268   1.429       .  A
C262        C263   1.420   1_545  A
C263        C265   1.399       .  A
C263        C264   1.404       .  A
C264        H275   1.084       .  S
C265        C266   1.390       .  A
C265        H276   1.084       .  S
C266        C267   1.400       .  A
C266        H277   1.084       .  S
C267        C268   1.422   1_565  A
C267        C272   1.404       .  A
C268        C269   1.415       .  A
C269        C270   1.395       .  A
C269        H278   1.077       .  S
C270        H279   1.083       .  S
C272        H280   1.084       .  S
C281        C286   1.401       .  A
C282        C283   1.396       .  A
C282        H295   1.083       .  S
C283        H296   1.077       .  S
C284        C290   1.429       .  A
C284        C285   1.422       .  A
C285        C287   1.399       .  A
C285        C286   1.403       .  A
C286        H297   1.085       .  S
C287        C288   1.389       .  A
C287        H298   1.084       .  S
C288        C289   1.399       .  A
C288        H299   1.084       .  S
C289        C290   1.420       .  A
C289        C294   1.403       .  A
C291        C292   1.394       .  A
C291        H300   1.077       .  S
C292        C293   1.410       .  A
C292        H301   1.080       .  S
C294        H302   1.084       .  S
C303        C633   1.552       .  S
C303        C308   1.411   1_545  A
C304        C305   1.395       .  A
C304        H317   1.083       .  S
C305        H318   1.078       .  S
C306        C312   1.431       .  A
C306        C307   1.420   1_545  A
C307        C309   1.400       .  A
C307        C308   1.405       .  A
C308        H319   1.081       .  S
C309        C310   1.390       .  A
C309        H320   1.084       .  S
C310        C311   1.399       .  A
C310        H321   1.084       .  S
C311        C312   1.422   1_565  A
C311        C316   1.406       .  A
C313        C314   1.397       .  A
C313        H322   1.078       .  S
C314        C315   1.402       .  A
C314        H323   1.083       .  S
C316        H324   1.084       .  S
C325        C738   1.401       .  A
C325        C330   1.402   1_655  A
C326        C737   1.401       .  A
C326        C327   1.395       .  A
C326        H339   1.083       .  S
C327        C740   1.414       .  A
C327        H340   1.077       .  S
C328        C739   1.414       .  A
C328        C334   1.429       .  A
C328        C329   1.422   1_655  A
C329        C331   1.399       .  A
C329        C330   1.406       .  A
C330        H341   1.084       .  S
C331        C332   1.390       .  A
C331        H342   1.084       .  S
C332        C333   1.400       .  A
C332        H343   1.084       .  S
C333        C334   1.420   1_455  A
C333        C338   1.406       .  A
C334        C747   1.411       .  A
C335        C746   1.411       .  A
C335        C336   1.394       .  A
C335        H344   1.077       .  S
C336        C749   1.408       .  A
C336        H345   1.083       .  S
C337        C748   1.408   1_455  A
C337        C338   1.411       .  A
C338        H346   1.081       .  S
C347        C348   1.400       .  A
C347        C764   1.401   1_455  A
C348        C349   1.394       .  A
C348        H361   1.083       .  S
C349        C762   1.414       .  A
C349        H362   1.077       .  S
C350        C761   1.414       .  A
C350        C356   1.428       .  A
C350        C351   1.422       .  A
C351        C353   1.399       .  A
C351        C352   1.405       .  A
C352        C759   1.401       .  A
C352        H363   1.084       .  S
C353        C354   1.390       .  A
C353        H364   1.084       .  S
C354        C355   1.400       .  A
C354        H365   1.084       .  S
C355        C356   1.420       .  A
C355        C360   1.405       .  A
C356        C769   1.411       .  A
C357        C768   1.411       .  A
C357        C358   1.393       .  A
C357        H366   1.077       .  S
C358        C359   1.408       .  A
C358        H367   1.083       .  S
C359        C772   1.410   1_455  A
C360        C771   1.410       .  A
C360        H368   1.081       .  S
C369        C370   1.410       .  A
C369        C786   1.409       .  A
C370        C371   1.395       .  A
C370        H383   1.080       .  S
C371        C372   1.412       .  A
C371        H384   1.077       .  S
C372        C378   1.431       .  A
C372        C785   1.420       .  A
C373        C784   1.420   1_455  A
C373        C375   1.399       .  A
C373        C374   1.404       .  A
C374        C781   1.409   1_455  A
C374        H385   1.084       .  S
C375        C376   1.390       .  A
C375        H386   1.084       .  S
C376        C377   1.399       .  A
C376        H387   1.084       .  S
C377        C790   1.422   1_455  A
C377        C382   1.405       .  A
C378        C789   1.422       .  A
C378        C379   1.416       .  A
C379        C380   1.397       .  A
C379        H388   1.077       .  S
C380        C381   1.400       .  A
C380        H389   1.083       .  S
C381        C794   1.402       .  A
C382        C793   1.402   1_455  A
C382        H390   1.084       .  S
C391        C392   1.401       .  A
C391        C808   1.403       .  A
C392        C805   1.394       .  A
C392        H405   1.083       .  S
C393        C804   1.394       .  A
C393        C394   1.413       .  A
C393        H406   1.077       .  S
C394        C400   1.429       .  A
C394        C395   1.422   1_655  A
C395        C397   1.400       .  A
C395        C396   1.408       .  A
C396        C803   1.403   1_455  A
C396        H407   1.084       .  S
C397        C398   1.392       .  A
C397        H408   1.084       .  S
C398        C399   1.401       .  A
C398        H409   1.084       .  S
C399        C400   1.420   1_455  A
C399        C404   1.408       .  A
C400        C401   1.410       .  A
C401        C814   1.392       .  A
C401        H410   1.077       .  S
C402        C813   1.392       .  A
C402        C403   1.408       .  A
C402        H411   1.083       .  S
C403        C816   1.411       .  A
C404        C815   1.411       .  A
C404        H412   1.082       .  S
O413        V421   1.898       .  S
O414        V421   1.896       .  S
O414        C424   1.264       .  A
O415        V421   1.903       .  S
O415        C425   1.266       .  A
O416        V421   1.905       .  S
O417        V422   1.896       .  S
O417        C426   1.265       .  A
O418        V422   1.896       .  S
O419        V422   1.901       .  S
O420        V422   1.902       .  S
O420        C423   1.266       .  A
C423        C587   1.481       .  S
C424        C553   1.477       .  S
C425        C531   1.480       .  S
C426        C597   1.482       .  S
C427        C499   1.550       .  S
C427        C543   1.551       .  S
C427        C771   1.550       .  S
C428        C465   1.551   1_455  S
C428        C781   1.551   1_445  S
C428        C609   1.552       .  S
O429        V437   1.906   1_556  S
O429        C645   1.266       .  A
O430        V437   1.904       .  S
O430        C646   1.266       .  A
O431        V437   1.896       .  S
O431        C647   1.264       .  A
O432        V437   1.898   1_556  S
O432        C648   1.264       .  A
O433        V438   1.899       .  S
O433        C442   1.265       .  A
O434        V438   1.899   1_554  S
O434        C441   1.265       .  A
O435        V438   1.900   1_554  S
O435        C440   1.265       .  A
O436        V438   1.900       .  S
O436        C439   1.265       .  A
V437        V644   2.085   1_554  T
V438        V643   2.085   1_546  T
C439        O635   1.266   1_545  A
C439        C455   1.485       .  S
C440        O636   1.266   1_545  A
C440        C521   1.483       .  S
C441        O637   1.264   1_545  A
C441        C487   1.476       .  S
C442        O638   1.264   1_545  A
C442        C477   1.478       .  S
C443        C444   1.408       .  A
C443        C654   1.411   1_545  A
C444        C445   1.395       .  A
C444        H457   1.083       .  S
C445        C652   1.412       .  A
C445        H458   1.077       .  S
C446        C651   1.412       .  A
C446        C452   1.432       .  A
C446        C447   1.420       .  A
C447        C449   1.400       .  A
C447        C448   1.408       .  A
C448        C649   1.411       .  A
C448        H459   1.082       .  S
C449        C450   1.391       .  A
C449        H460   1.084       .  S
C450        C451   1.400       .  A
C450        H461   1.084       .  S
C451        C452   1.422       .  A
C451        C456   1.408       .  A
C452        C659   1.414       .  A
C453        C658   1.414       .  A
C453        C454   1.397       .  A
C453        H462   1.077       .  S
C454        C455   1.402       .  A
C454        H463   1.083       .  S
C455        C662   1.403   1_545  A
C456        C661   1.403       .  A
C456        H464   1.084       .  S
C465        C672   1.409       .  A
C465        C676   1.409   1_545  A
C466        C671   1.409       .  A
C466        C467   1.394       .  A
C466        H479   1.081       .  S
C467        C468   1.412       .  A
C467        H480   1.077       .  S
C468        C474   1.429       .  A
C468        C469   1.420       .  A
C469        C471   1.399       .  A
C469        C470   1.404       .  A
C470        C671   1.409       .  A
C470        H481   1.084       .  S
C471        C472   1.390       .  A
C471        H482   1.084       .  S
C472        C473   1.400       .  A
C472        H483   1.084       .  S
C473        C474   1.422       .  A
C473        C478   1.404       .  A
C474        C475   1.415       .  A
C475        C476   1.395       .  A
C475        H484   1.077       .  S
C476        C683   1.399       .  A
C476        H485   1.083       .  S
C477        C682   1.399       .  A
C477        C684   1.402   1_545  A
C478        C683   1.402       .  A
C478        H486   1.084       .  S
C487        C694   1.399       .  A
C487        C492   1.401   1_545  A
C488        C693   1.399       .  A
C488        C489   1.396       .  A
C488        H501   1.083       .  S
C489        C696   1.416       .  A
C489        H502   1.077       .  S
C490        C695   1.416       .  A
C490        C496   1.429       .  A
C490        C491   1.422   1_545  A
C491        C493   1.399       .  A
C491        C492   1.403       .  A
C492        H503   1.085       .  S
C493        C494   1.389       .  A
C493        H504   1.084       .  S
C494        C495   1.399       .  A
C494        H505   1.084       .  S
C495        C496   1.420   1_565  A
C495        C500   1.403       .  A
C496        C703   1.411       .  A
C497        C702   1.411       .  A
C497        C498   1.394       .  A
C497        H506   1.077       .  S
C498        C499   1.410       .  A
C498        H507   1.080       .  S
C499        C706   1.408       .  A
C500        C705   1.408   1_565  A
C500        H508   1.084       .  S
C509        C716   1.408       .  A
C509        C514   1.411       .  A
C510        C715   1.408       .  A
C510        C511   1.395       .  A
C510        H523   1.083       .  S
C511        C718   1.412       .  A
C511        H524   1.077       .  S
C512        C717   1.412       .  A
C512        C518   1.431       .  A
C512        C513   1.420       .  A
C513        C515   1.400       .  A
C513        C514   1.405       .  A
C514        H525   1.081       .  S
C515        C516   1.390       .  A
C515        H526   1.084       .  S
C516        C517   1.399       .  A
C516        H527   1.084       .  S
C517        C518   1.422       .  A
C517        C522   1.406       .  A
C518        C725   1.415       .  A
C519        C724   1.415       .  A
C519        C520   1.397       .  A
C519        H528   1.078       .  S
C520        C521   1.402       .  A
C520        H529   1.083       .  S
C521        C728   1.402   1_545  A
C522        C727   1.402       .  A
C522        H530   1.084       .  S
C531        C536   1.402       .  A
C532        C533   1.395       .  A
C532        H545   1.083       .  S
C533        H546   1.077       .  S
C534        C540   1.429       .  A
C534        C535   1.422       .  A
C535        C537   1.399       .  A
C535        C536   1.406       .  A
C536        H547   1.084       .  S
C537        C538   1.390       .  A
C537        H548   1.084       .  S
C538        C539   1.400       .  A
C538        H549   1.084       .  S
C539        C540   1.420       .  A
C539        C544   1.406       .  A
C541        C542   1.394       .  A
C541        H550   1.077       .  S
C542        H551   1.083       .  S
C543        C544   1.411       .  A
C544        H552   1.081       .  S
C553        C554   1.400       .  A
C554        C555   1.394       .  A
C554        H567   1.083       .  S
C555        H568   1.077       .  S
C556        C562   1.428       .  A
C556        C557   1.422   1_455  A
C557        C559   1.399       .  A
C557        C558   1.405       .  A
C558        H569   1.084       .  S
C559        C560   1.390       .  A
C559        H570   1.084       .  S
C560        C561   1.400       .  A
C560        H571   1.084       .  S
C561        C562   1.420   1_655  A
C561        C566   1.405       .  A
C563        C564   1.393       .  A
C563        H572   1.077       .  S
C564        C565   1.408       .  A
C564        H573   1.083       .  S
C565        C633   1.550       .  S
C566        H574   1.081       .  S
C575        C634   1.551   1_655  S
C575        C576   1.410       .  A
C576        C577   1.395       .  A
C576        H589   1.080       .  S
C577        C578   1.412       .  A
C577        H590   1.077       .  S
C578        C584   1.431       .  A
C579        C581   1.399       .  A
C579        C580   1.404       .  A
C580        H591   1.084       .  S
C581        C582   1.390       .  A
C581        H592   1.084       .  S
C582        C583   1.399       .  A
C582        H593   1.084       .  S
C583        C588   1.405       .  A
C584        C585   1.416       .  A
C585        C586   1.397       .  A
C585        H594   1.077       .  S
C586        C587   1.400       .  A
C586        H595   1.083       .  S
C588        H596   1.084       .  S
C597        C598   1.401       .  A
C598        H611   1.083       .  S
C599        C600   1.413       .  A
C599        H612   1.077       .  S
C600        C606   1.429       .  A
C600        C601   1.422       .  A
C601        C603   1.400       .  A
C601        C602   1.408       .  A
C602        H613   1.084       .  S
C603        C604   1.392       .  A
C603        H614   1.084       .  S
C604        C605   1.401       .  A
C604        H615   1.084       .  S
C605        C606   1.420       .  A
C605        C610   1.408       .  A
C606        C607   1.410       .  A
C607        H616   1.077       .  S
C608        C609   1.408   1_655  A
C608        H617   1.083       .  S
C610        H618   1.082       .  S
O619        V627   1.898       .  S
O620        V627   1.896       .  S
O620        C630   1.264       .  A
O621        V627   1.903       .  S
O621        C631   1.266       .  A
O622        V627   1.905       .  S
O623        V628   1.896       .  S
O623        C632   1.265       .  A
O624        V628   1.896       .  S
O625        V628   1.901       .  S
O626        V628   1.902       .  S
O626        C629   1.266       .  A
C629        C793   1.481       .  S
C630        C759   1.477       .  S
C631        C737   1.480       .  S
C632        C803   1.482       .  S
C633        C705   1.550       .  S
C633        C749   1.551   1_545  S
C634        C671   1.551   1_455  S
C634        C815   1.552       .  S
O635        V643   1.906   1_556  S
O636        V643   1.904       .  S
O637        V643   1.896       .  S
O638        V643   1.898   1_556  S
O639        V644   1.899       .  S
O639        C648   1.265       .  A
O640        V644   1.899   1_554  S
O640        C647   1.265       .  A
O641        V644   1.900   1_554  S
O641        C646   1.265       .  A
O642        V644   1.900       .  S
O642        C645   1.265       .  A
C645        C661   1.485       .  S
C646        C727   1.483       .  S
C647        C693   1.476       .  S
C648        C683   1.478       .  S
C649        C650   1.408       .  A
C650        C651   1.395       .  A
C650        H663   1.083       .  S
C651        H664   1.077       .  S
C652        C658   1.432       .  A
C652        C653   1.420   1_545  A
C653        C655   1.400       .  A
C653        C654   1.408       .  A
C654        H665   1.082       .  S
C655        C656   1.391       .  A
C655        H666   1.084       .  S
C656        C657   1.400       .  A
C656        H667   1.084       .  S
C657        C658   1.422   1_565  A
C657        C662   1.408       .  A
C659        C660   1.397       .  A
C659        H668   1.077       .  S
C660        C661   1.402       .  A
C660        H669   1.083       .  S
C662        H670   1.084       .  S
C672        C673   1.394       .  A
C672        H685   1.081       .  S
C673        C674   1.412       .  A
C673        H686   1.077       .  S
C674        C680   1.429       .  A
C674        C675   1.420   1_545  A
C675        C677   1.399       .  A
C675        C676   1.404       .  A
C676        H687   1.084       .  S
C677        C678   1.390       .  A
C677        H688   1.084       .  S
C678        C679   1.400       .  A
C678        H689   1.084       .  S
C679        C680   1.422   1_565  A
C679        C684   1.404       .  A
C680        C681   1.415       .  A
C681        C682   1.395       .  A
C681        H690   1.077       .  S
C682        H691   1.083       .  S
C684        H692   1.084       .  S
C693        C698   1.401       .  A
C694        C695   1.396       .  A
C694        H707   1.083       .  S
C695        H708   1.077       .  S
C696        C702   1.429       .  A
C696        C697   1.422       .  A
C697        C699   1.399       .  A
C697        C698   1.403       .  A
C698        H709   1.085       .  S
C699        C700   1.389       .  A
C699        H710   1.084       .  S
C700        C701   1.399       .  A
C700        H711   1.084       .  S
C701        C702   1.420       .  A
C701        C706   1.403       .  A
C703        C704   1.394       .  A
C703        H712   1.077       .  S
C704        C705   1.410       .  A
C704        H713   1.080       .  S
C706        H714   1.084       .  S
C715        C720   1.411   1_545  A
C716        C717   1.395       .  A
C716        H729   1.083       .  S
C717        H730   1.078       .  S
C718        C724   1.431       .  A
C718        C719   1.420   1_545  A
C719        C721   1.400       .  A
C719        C720   1.405       .  A
C720        H731   1.081       .  S
C721        C722   1.390       .  A
C721        H732   1.084       .  S
C722        C723   1.399       .  A
C722        H733   1.084       .  S
C723        C724   1.422   1_565  A
C723        C728   1.406       .  A
C725        C726   1.397       .  A
C725        H734   1.078       .  S
C726        C727   1.402       .  A
C726        H735   1.083       .  S
C728        H736   1.084       .  S
C737        C742   1.402       .  A
C738        C739   1.395       .  A
C738        H751   1.083       .  S
C739        H752   1.077       .  S
C740        C746   1.429       .  A
C740        C741   1.422       .  A
C741        C743   1.399       .  A
C741        C742   1.406       .  A
C742        H753   1.084       .  S
C743        C744   1.390       .  A
C743        H754   1.084       .  S
C744        C745   1.400       .  A
C744        H755   1.084       .  S
C745        C746   1.420       .  A
C745        C750   1.406       .  A
C747        C748   1.394       .  A
C747        H756   1.077       .  S
C748        H757   1.083       .  S
C749        C750   1.411       .  A
C750        H758   1.081       .  S
C759        C760   1.400       .  A
C760        C761   1.394       .  A
C760        H773   1.083       .  S
C761        H774   1.077       .  S
C762        C768   1.428       .  A
C762        C763   1.422   1_455  A
C763        C765   1.399       .  A
C763        C764   1.405       .  A
C764        H775   1.084       .  S
C765        C766   1.390       .  A
C765        H776   1.084       .  S
C766        C767   1.400       .  A
C766        H777   1.084       .  S
C767        C768   1.420   1_655  A
C767        C772   1.405       .  A
C769        C770   1.393       .  A
C769        H778   1.077       .  S
C770        C771   1.408       .  A
C770        H779   1.083       .  S
C772        H780   1.081       .  S
C781        C782   1.410       .  A
C782        C783   1.395       .  A
C782        H795   1.080       .  S
C783        C784   1.412       .  A
C783        H796   1.077       .  S
C784        C790   1.431       .  A
C785        C787   1.399       .  A
C785        C786   1.404       .  A
C786        H797   1.084       .  S
C787        C788   1.390       .  A
C787        H798   1.084       .  S
C788        C789   1.399       .  A
C788        H799   1.084       .  S
C789        C794   1.405       .  A
C790        C791   1.416       .  A
C791        C792   1.397       .  A
C791        H800   1.077       .  S
C792        C793   1.400       .  A
C792        H801   1.083       .  S
C794        H802   1.085       .  S
C803        C804   1.401       .  A
C804        H817   1.083       .  S
C805        C806   1.413       .  A
C805        H818   1.077       .  S
C806        C812   1.429       .  A
C806        C807   1.422       .  A
C807        C809   1.400       .  A
C807        C808   1.408       .  A
C808        H819   1.084       .  S
C809        C810   1.392       .  A
C809        H820   1.084       .  S
C810        C811   1.401       .  A
C810        H821   1.084       .  S
C811        C812   1.420       .  A
C811        C816   1.408       .  A
C812        C813   1.410       .  A
C813        H822   1.077       .  S
C814        C815   1.408   1_655  A
C814        H823   1.083       .  S
C816        H824   1.082       .  S
