geometry optimzed in LAMMPS
_audit_creation_date              2020-11-30 
_audit_creation_method            'lammps2cif' 
_symmetry_space_group_name_H-M    'P1' 
_symmetry_Int_Tables_number       1 
_symmetry_cell_setting            triclinic 
loop_ 
_symmetry_equiv_pos_as_xyz 
  x,y,z 
_cell_length_a                    32.62359760876862 
_cell_length_b                    33.15421540230633 
_cell_length_c                    32.22173502279924 
_cell_angle_alpha                 89.99816929239975 
_cell_angle_beta                  90.00531836751162 
_cell_angle_gamma                 90.00255563878676 
loop_ 
_atom_site_label 
_atom_site_type_symbol 
_atom_site_fract_x 
_atom_site_fract_y 
_atom_site_fract_z 
_atom_site_charge 
C1          C  0.12936126  0.83949679  0.46143583     0.03880
C2          C  0.10582520  0.83298944  0.49810350     0.03880
C3          C  0.12893417  0.83794189  0.53522558     0.03880
C4          C  0.15873507  0.86965784  0.53616923     0.03880
C5          C  0.16429147  0.89347110  0.49991873     0.03880
C6          C  0.15957359  0.87118409  0.46220903     0.03880
C7          C  0.15749388  0.09737423  0.46285514     0.03880
C8          C  0.16321238  0.07491164  0.50033243     0.03880
C9          C  0.15805374  0.09827291  0.53687675     0.03880
C10         C  0.12798679  0.12959528  0.53682897     0.03880
C11         C  0.10463417  0.13566558  0.50026500     0.03880
C12         C  0.12689244  0.12882842  0.46275763     0.03880
C13         C  0.89799088  0.12866234  0.53693984     0.03880
C14         C  0.92125490  0.13497935  0.50036128     0.03880
C15         C  0.89904971  0.12795993  0.46285167     0.03880
C16         C  0.86872268  0.09626159  0.46291157     0.03880
C17         C  0.86310993  0.07377657  0.50039261     0.03880
C18         C  0.86811465  0.09716800  0.53693259     0.03880
C19         C  0.89833552  0.83876968  0.46146841     0.03880
C20         C  0.92191508  0.83231164  0.49811984     0.03880
C21         C  0.89879937  0.83713001  0.53525551     0.03880
C22         C  0.86878427  0.86860388  0.53626264     0.03880
C23         C  0.86294204  0.89237547  0.50004233     0.03880
C24         C  0.86787214  0.87017609  0.46231466     0.03880
C25         C  0.47712215  0.13058365  0.11485381     0.03880
C26         C  0.51297525  0.13764449  0.09086006     0.03880
C27         C  0.55019267  0.13039143  0.11305805     0.03880
C28         C  0.55030327  0.09803473  0.14285575     0.03880
C29         C  0.51404232  0.07460918  0.14737839     0.03880
C30         C  0.47788787  0.09840828  0.14458792     0.03880
C31         C  0.47702162  0.13022440  0.88125826     0.03880
C32         C  0.51288336  0.13750363  0.90513898     0.03880
C33         C  0.55005753  0.13016357  0.88292340     0.03880
C34         C  0.55016658  0.09756769  0.85341675     0.03880
C35         C  0.51394773  0.07406395  0.84914300     0.03880
C36         C  0.47779346  0.09783056  0.85182457     0.03880
C37         C  0.54942953  0.83636077  0.11435376     0.03880
C38         C  0.54944972  0.86877221  0.14395414     0.03880
C39         C  0.51335319  0.89260736  0.14763419     0.03880
C40         C  0.47701207  0.86909217  0.14429568     0.03880
C41         C  0.47647694  0.83670442  0.11462054     0.03880
C42         C  0.51284321  0.83008832  0.09100163     0.03880
C43         C  0.47703755  0.86867258  0.85156510     0.03880
C44         C  0.51334852  0.89219845  0.84825771     0.03880
C45         C  0.54944119  0.86841411  0.85199211     0.03880
C46         C  0.54940916  0.83597515  0.88149274     0.03880
C47         C  0.51284311  0.82961311  0.90479319     0.03880
C48         C  0.47651122  0.83626424  0.88115984     0.03880
C49         C  0.12889178  0.44718715  0.85291358     0.03880
C50         C  0.10552933  0.48265306  0.84601065     0.03880
C51         C  0.12812087  0.51903600  0.85143639     0.03880
C52         C  0.15982299  0.51966706  0.88227323     0.03880
C53         C  0.16723292  0.48432901  0.90585540     0.03880
C54         C  0.16073938  0.44781698  0.88362447     0.03880
C55         C  0.16000550  0.51952331  0.11486615     0.03880
C56         C  0.16722312  0.48416167  0.09120985     0.03880
C57         C  0.16067489  0.44759408  0.11338691     0.03880
C58         C  0.12893676  0.44703603  0.14426648     0.03880
C59         C  0.10560480  0.48256234  0.15115577     0.03880
C60         C  0.12832489  0.51893555  0.14580084     0.03880
C61         C  0.89808045  0.44766101  0.14544861     0.03880
C62         C  0.92173805  0.48314180  0.15121021     0.03880
C63         C  0.89951360  0.51962269  0.14440916     0.03880
C64         C  0.86770411  0.51971020  0.11339004     0.03880
C65         C  0.86012944  0.48333407  0.09117332     0.03880
C66         C  0.86647749  0.44775837  0.11465565     0.03880
C67         C  0.89976518  0.51969660  0.85289202     0.03880
C68         C  0.92194403  0.48324930  0.84606544     0.03880
C69         C  0.89831678  0.44779263  0.85179945     0.03880
C70         C  0.86658581  0.44784948  0.88237414     0.03880
C71         C  0.86015619  0.48335265  0.90588193     0.03880
C72         C  0.86785614  0.51971335  0.88373964     0.03880
O73         O  0.27725790  0.88943756  0.63529617    -0.73700
O74         O  0.24497506  0.94189203  0.60546124    -0.52610
C75         C  0.25063112  0.90433284  0.60962811     0.80030
O76         O  0.27007791  0.91639284  0.83235412    -0.58300
O77         O  0.33304328  0.94597346  0.83666250    -0.51330
C78         C  0.30365535  0.92529150  0.85124105     0.72050
O79         O  0.17986473  0.90886591  0.72202236    -0.72860
O80         O  0.17762125  0.94403225  0.66113459    -0.53420
C81         C  0.16335569  0.91895043  0.68729121     0.78050
O82         O  0.38288538  0.89307905  0.72965497    -0.58000
O83         O  0.39485398  0.94072485  0.77892765    -0.51120
C84         C  0.40095342  0.90623536  0.76288059     0.74640
Zr85       Zr  0.33199786  0.92181906  0.67915162     2.54710
O86         O  0.35506473  0.85495985  0.65853983    -0.78570
O87         O  0.38096818  0.93033098  0.62278569    -0.91980
Zr88       Zr  0.24093492  0.92336767  0.76284057     2.64680
O89         O  0.24796208  0.85022889  0.76250523    -0.96940
O90         O  0.18403923  0.91319366  0.81057463    -0.79000
O91         O  0.26056116  0.92171394  0.69225519    -0.82360
O92         O  0.31206044  0.92110663  0.75018674    -2.17070
O93         O  0.38286000  0.07475310  0.73027215    -0.65750
O94         O  0.39454371  0.02700891  0.77952813    -0.50310
C95         C  0.40095712  0.06138095  0.76338193     0.73020
O96         O  0.17942652  0.05820013  0.72274837    -0.58650
O97         O  0.17733384  0.02357024  0.66154823    -0.50630
C98         C  0.16292525  0.04832309  0.68797018     0.74830
O99         O  0.26875488  0.04918756  0.83324976    -0.70050
O100        O  0.33212549  0.02049130  0.83738640    -0.48730
C101        C  0.30226776  0.04036541  0.85220854     0.76210
O102        O  0.27662195  0.07890182  0.63604669    -0.65380
O103        O  0.24504759  0.02629613  0.60573354    -0.52580
C104        C  0.25028471  0.06387810  0.61015890     0.74590
Zr105      Zr  0.33156258  0.04669577  0.67973202     2.77540
O106        O  0.35243220  0.11407576  0.65806280    -0.96130
O107        O  0.38004876  0.03668726  0.62328246    -0.76950
Zr108      Zr  0.24052367  0.04361998  0.76337185     2.70070
O109        O  0.24834819  0.11665678  0.76440079    -0.78200
O110        O  0.18252184  0.05390153  0.80981147    -0.97280
Zr111      Zr  0.23777210  0.98393472  0.66433831     2.21500
Zr112      Zr  0.33716503  0.98377761  0.77495392     2.11130
O113        O  0.31170314  0.04657367  0.75080547    -2.45970
O114        O  0.26011822  0.04601661  0.69284273    -0.77990
O115        O  0.35965790  0.98423790  0.70520859    -0.70190
O116        O  0.21456906  0.98353317  0.73438331    -2.31140
O117        O  0.30906484  0.98434209  0.64927230    -2.27350
O118        O  0.26650298  0.98345182  0.79187754    -0.71940
H119        H  0.32174782  0.89822100  0.76586078     0.80050
H120        H  0.18505823  0.98344081  0.73657936     0.81140
H121        H  0.32141203  0.06932770  0.76667596     0.83370
H122        H  0.31360685  0.98460500  0.61965540     0.80970
H123        H  0.17457636  0.94080402  0.81731170     0.44010
H124        H  0.18445965  0.03164765  0.83021393     0.42980
H125        H  0.21999039  0.12719108  0.76282280     0.42660
H126        H  0.34429484  0.13188448  0.68132077     0.40590
H127        H  0.40720447  0.03661092  0.63701094     0.43720
H128        H  0.39407166  0.95675477  0.62802484     0.38510
H129        H  0.33837195  0.83624747  0.67551867     0.44620
H130        H  0.25956996  0.84354742  0.79005553     0.41040
H131        H  0.38277366  0.11392541  0.65873293     0.45960
H132        H  0.36403928  0.93449849  0.59764718     0.44680
H133        H  0.21945693  0.84002153  0.76362281     0.44820
H134        H  0.18942754  0.07849152  0.82580074     0.45170
O135        O  0.10903214  0.24343825  0.64040662    -0.73700
O136        O  0.05562090  0.21300791  0.60931069    -0.52610
C137        C  0.09379743  0.21837904  0.61351244     0.80030
O138        O  0.07520090  0.22102100  0.83937945    -0.58300
O139        O  0.05115481  0.28511612  0.84664335    -0.51330
C140        C  0.06769054  0.25304556  0.86045903     0.72050
O141        O  0.08919188  0.14325923  0.72431521    -0.72860
O142        O  0.05479259  0.14364453  0.66266368    -0.53420
C143        C  0.07960208  0.12840450  0.68883768     0.78050
O144        O  0.10247717  0.34640157  0.73858153    -0.58000
O145        O  0.05751115  0.35152033  0.79243979    -0.51120
C146        C  0.09008951  0.36174591  0.77351571     0.74640
Zr147      Zr  0.07620512  0.29519721  0.68740408     2.54710
O148        O  0.14521012  0.31773512  0.67055063    -0.78570
O149        O  0.06770198  0.34476701  0.63228494    -0.91980
Zr150      Zr  0.07537554  0.20235440  0.76636294     2.64680
O151        O  0.14860215  0.21660393  0.76625553    -0.96940
O152        O  0.09617695  0.14512483  0.80874724    -0.79000
O153        O  0.07682054  0.22433561  0.69679951    -0.82360
O154        O  0.07735626  0.27304894  0.75772026    -2.17070
O155        O  0.92414939  0.34597683  0.73854412    -0.65750
O156        O  0.96902128  0.35113047  0.79248674    -0.50310
C157        C  0.93663251  0.36149639  0.77332231     0.73020
O158        O  0.93878333  0.14265897  0.72450555    -0.58650
O159        O  0.97332258  0.14308291  0.66293269    -0.50630
C160        C  0.94846620  0.12780771  0.68902971     0.74830
O161        O  0.95457110  0.21994284  0.84028371    -0.70050
O162        O  0.97684493  0.28467279  0.84708468    -0.48730
C163        C  0.96166904  0.25212904  0.86126657     0.76210
O164        O  0.91721548  0.24193157  0.64117013    -0.65380
O165        O  0.97053965  0.21142399  0.60986368    -0.52580
C166        C  0.93237667  0.21683718  0.61425865     0.74590
Zr167      Zr  0.94977769  0.29416324  0.68782926     2.77540
O168        O  0.87998087  0.31405724  0.67022774    -0.96130
O169        O  0.95905578  0.34288027  0.63211600    -0.76950
Zr170      Zr  0.95268667  0.20150577  0.76709276     2.70070
O171        O  0.87939595  0.21534132  0.76914123    -0.78200
O172        O  0.93299665  0.14261201  0.80772887    -0.97280
Zr173      Zr  0.01363083  0.20252865  0.66813983     2.21500
Zr174      Zr  0.01347089  0.29539687  0.78458691     2.11130
O175        O  0.94958009  0.27222390  0.75826297    -2.45970
O176        O  0.95050182  0.22340389  0.69751490    -0.77990
O177        O  0.01289184  0.32035438  0.71558995    -0.70190
O178        O  0.01404199  0.17706178  0.73720535    -2.31140
O179        O  0.01299710  0.27340409  0.65636287    -2.27350
O180        O  0.01404283  0.22510643  0.79645063    -0.71940
H181        H  0.10047301  0.28280649  0.77348890     0.80050
H182        H  0.01418241  0.14796938  0.73835421     0.81140
H183        H  0.92652026  0.28196300  0.77413123     0.83370
H184        H  0.01269190  0.27917444  0.62698540     0.80970
H185        H  0.07008429  0.13201804  0.81678279     0.44010
H186        H  0.95617562  0.13811872  0.82702566     0.42980
H187        H  0.86647254  0.19021193  0.75891481     0.42660
H188        H  0.86353976  0.30723355  0.69509096     0.40590
H189        H  0.95885002  0.36938275  0.64628084     0.43720
H190        H  0.04040701  0.35684731  0.63723169     0.38510
H191        H  0.16328243  0.30056965  0.68780990     0.44620
H192        H  0.15597231  0.21877612  0.79598668     0.41040
H193        H  0.88027752  0.34390848  0.66939615     0.45960
H194        H  0.06449017  0.32873287  0.60656872     0.44680
H195        H  0.16145679  0.19108983  0.75700049     0.44820
H196        H  0.91020116  0.15192209  0.82562206     0.45170
O197        O  0.11044530  0.72469394  0.35787998    -0.73700
O198        O  0.05733985  0.75607700  0.38859700    -0.52610
C199        C  0.09551086  0.75032784  0.38448114     0.80030
O200        O  0.07602316  0.74606037  0.15862739    -0.58300
O201        O  0.05253047  0.68178158  0.15132880    -0.51330
C202        C  0.06877816  0.71402399  0.13751947     0.72050
O203        O  0.09002499  0.82337266  0.27333561    -0.72860
O204        O  0.05526664  0.82378089  0.33477606    -0.53420
C205        C  0.08021084  0.83864292  0.30851920     0.78050
O206        O  0.10406207  0.62051832  0.26059230    -0.58000
O207        O  0.05956651  0.61523597  0.20630691    -0.51120
C208        C  0.09196758  0.60502273  0.22559414     0.74640
Zr209      Zr  0.07747114  0.67219569  0.31126675     2.54710
O210        O  0.14660993  0.65004375  0.32812601    -0.78570
O211        O  0.06933238  0.62309140  0.36688019    -0.91980
Zr212      Zr  0.07651468  0.76417152  0.23166686     2.64680
O213        O  0.14967837  0.74960364  0.23185008    -0.96940
O214        O  0.09790791  0.82140907  0.18959645    -0.79000
O215        O  0.07776753  0.74289734  0.30145793    -0.82360
O216        O  0.07863511  0.69359655  0.24065974    -2.17070
O217        O  0.92435100  0.62158880  0.25871630    -0.65750
O218        O  0.96965295  0.61575744  0.20520863    -0.50310
C219        C  0.93673711  0.60600875  0.22385728     0.73020
O220        O  0.94011646  0.82404725  0.27224515    -0.58650
O221        O  0.97423430  0.82425558  0.33405873    -0.50630
C222        C  0.94969033  0.83930146  0.30751024     0.74830
O223        O  0.95362866  0.74509646  0.15791385    -0.70050
O224        O  0.97821960  0.68119304  0.15077738    -0.48730
C225        C  0.96137203  0.71308879  0.13691751     0.76210
O226        O  0.91782780  0.72508675  0.35680490    -0.65380
O227        O  0.97073429  0.75653141  0.38795094    -0.52580
C228        C  0.93261156  0.75060294  0.38361050     0.74590
Zr229      Zr  0.95087726  0.67269045  0.31022478     2.77540
O230        O  0.88171509  0.65184211  0.32914642    -0.96130
O231        O  0.96106086  0.62347342  0.36530996    -0.76950
Zr232      Zr  0.95397660  0.76487185  0.23063093     2.70070
O233        O  0.88046382  0.75215671  0.22948407    -0.78200
O234        O  0.93615399  0.82372100  0.18906115    -0.97280
Zr235      Zr  0.01446690  0.76464030  0.32993444     2.21500
Zr236      Zr  0.01489663  0.67100617  0.21347168     2.11130
O237        O  0.95102093  0.69432619  0.23970371    -2.45970
O238        O  0.95147980  0.74343178  0.30039218    -0.77990
O239        O  0.01427230  0.64664755  0.28279767    -0.70190
O240        O  0.01516075  0.78948134  0.26060549    -2.31140
O241        O  0.01397742  0.69381183  0.34200127    -2.27350
O242        O  0.01533032  0.74124330  0.20136607    -0.71940
H243        H  0.10185497  0.68384453  0.22505120     0.80050
H244        H  0.01529292  0.81855771  0.25914112     0.81140
H245        H  0.92790343  0.68489924  0.22372811     0.83370
H246        H  0.01358688  0.68825817  0.37142250     0.80970
H247        H  0.07198923  0.83513959  0.18210209     0.44010
H248        H  0.95908233  0.82675891  0.16916925     0.42980
H249        H  0.86803295  0.77771754  0.23918513     0.42660
H250        H  0.86458307  0.65919738  0.30492860     0.40590
H251        H  0.96139191  0.59714906  0.35079865     0.43720
H252        H  0.04233301  0.61044274  0.36177766     0.38510
H253        H  0.16457523  0.66718700  0.31073028     0.44620
H254        H  0.15704414  0.74732169  0.20212828     0.41040
H255        H  0.88223494  0.62198232  0.32911606     0.45960
H256        H  0.06554990  0.63933118  0.39237753     0.44680
H257        H  0.16264515  0.77508755  0.24104010     0.44820
H258        H  0.91255227  0.81508374  0.17189284     0.45170
O259        O  0.27497611  0.82831058  0.07142394    -0.73700
O260        O  0.33624772  0.83073643  0.03759651    -0.52610
C261        C  0.30859355  0.84543783  0.06104590     0.80030
O262        O  0.27149314  0.62278088  0.08804293    -0.58300
O263        O  0.21775728  0.61598354  0.04323842    -0.51330
C264        C  0.23722513  0.60634625  0.07597405     0.72050
O265        O  0.36949681  0.72638214  0.09355595    -0.72860
O266        O  0.39312867  0.76622205  0.04160295    -0.53420
C267        C  0.39336428  0.75463130  0.07913929     0.78050
O268        O  0.16779555  0.74642232  0.05984706    -0.58000
O269        O  0.16170810  0.68170502  0.03712932    -0.51120
C270        C  0.14761087  0.71389231  0.05340755     0.74640
Zr271      Zr  0.23936857  0.76528970  0.06124005     2.54710
O272        O  0.24550014  0.74896642  0.13467839    -0.78570
O273        O  0.19329442  0.81577977  0.09047741    -0.91980
Zr274      Zr  0.32059315  0.67585598  0.06121282     2.64680
O275        O  0.34087551  0.65500081  0.13076460    -0.96940
O276        O  0.37414988  0.62676348  0.04649032    -0.79000
O277        O  0.30905480  0.74653359  0.06213068    -0.82360
O278        O  0.25014526  0.69512998  0.06283201    -2.17070
O279        O  0.16675274  0.74734037  0.93883952    -0.65750
O280        O  0.16133598  0.68215175  0.96020391    -0.50310
C281        C  0.14688575  0.71454938  0.94465141     0.73020
O282        O  0.36915212  0.72639183  0.90171934    -0.58650
O283        O  0.39249846  0.76684114  0.95336271    -0.50630
C284        C  0.39293816  0.75474839  0.91600686     0.74830
O285        O  0.27100381  0.62323527  0.90776958    -0.70050
O286        O  0.21758158  0.61643809  0.95298592    -0.48730
C287        C  0.23689282  0.60678077  0.92015700     0.76210
O288        O  0.27305354  0.82891027  0.92541766    -0.65380
O289        O  0.33487679  0.83113340  0.95825032    -0.52580
C290        C  0.30684577  0.84595484  0.93525278     0.74590
Zr291      Zr  0.23826191  0.76586486  0.93657180     2.77540
O292        O  0.24100001  0.75034356  0.86274601    -0.96130
O293        O  0.19405562  0.81926819  0.91037121    -0.76950
Zr294      Zr  0.31969621  0.67656387  0.93412484     2.70070
O295        O  0.33500578  0.65616126  0.86323664    -0.78200
O296        O  0.37385787  0.62758389  0.94677808    -0.97280
Zr297      Zr  0.33513363  0.77022555  0.99784887     2.21500
Zr298      Zr  0.22318239  0.67217268  0.99841093     2.11130
O299        O  0.24925019  0.69579866  0.93394313    -2.45970
O300        O  0.30799647  0.74723185  0.93379981    -0.77990
O301        O  0.20994161  0.74199414  0.99902438    -0.70190
O302        O  0.35004974  0.69987374  0.99754567    -2.31140
O303        O  0.26577587  0.79190584  0.99875338    -2.27350
O304        O  0.29246925  0.64986994  0.99772217    -0.71940
H305        H  0.23511593  0.68495043  0.08640573     0.80050
H306        H  0.37933148  0.69551544  0.99727399     0.81140
H307        H  0.23397009  0.68567734  0.91050501     0.83370
H308        H  0.26213248  0.82076002  0.99878770     0.80970
H309        H  0.39971156  0.63991656  0.05605583     0.44010
H310        H  0.36081731  0.60113537  0.94135522     0.42980
H311        H  0.31709196  0.67339363  0.84587738     0.42660
H312        H  0.21193158  0.74749223  0.85438809     0.40590
H313        H  0.18465894  0.83370251  0.93553959     0.43720
H314        H  0.19415485  0.83872702  0.07082396     0.38510
H315        H  0.26607662  0.76831557  0.14535727     0.44620
H316        H  0.31668110  0.66071403  0.14836521     0.41040
H317        H  0.25007996  0.77579432  0.84954872     0.45960
H318        H  0.20708228  0.82578547  0.11585244     0.44680
H319        H  0.34252959  0.62520051  0.12963272     0.44820
H320        H  0.39326771  0.63134008  0.92347677     0.45170
O321        O  0.08859643  0.14218284  0.26936839    -0.73700
O322        O  0.05407899  0.14169921  0.33086872    -0.52610
C323        C  0.07860004  0.12665174  0.30439941     0.80030
O324        O  0.10254245  0.34565315  0.25845534    -0.58300
O325        O  0.05730750  0.35191645  0.20492866    -0.51330
C326        C  0.09008271  0.36161927  0.22379703     0.72050
O327        O  0.10901918  0.24180857  0.35636265    -0.72860
O328        O  0.05550237  0.20928254  0.38497608    -0.53420
C329        C  0.09361647  0.21580138  0.38228672     0.78050
O330        O  0.07538373  0.22219033  0.15593813    -0.58000
O331        O  0.05125149  0.28632754  0.14949473    -0.51120
C332        C  0.06777699  0.25442274  0.13526820     0.74640
Zr333      Zr  0.07591114  0.20238598  0.22853777     2.54710
O334        O  0.14906189  0.21689599  0.23054547    -0.78570
O335        O  0.09845651  0.14798074  0.18304297    -0.91980
Zr336      Zr  0.07607991  0.29387020  0.30926049     2.64680
O337        O  0.14391521  0.31661623  0.33060457    -0.96940
O338        O  0.06212486  0.34252119  0.36406980    -0.79000
O339        O  0.07705290  0.22319100  0.29848055    -0.82360
O340        O  0.07747575  0.27292169  0.23846273    -2.17070
O341        O  0.95538411  0.22003178  0.15469955    -0.65750
O342        O  0.97694467  0.28510181  0.14899576    -0.50310
C343        C  0.96213661  0.25259418  0.13427029     0.73020
O344        O  0.91709754  0.24051102  0.35603507    -0.58650
O345        O  0.97033963  0.20680918  0.38411987    -0.50630
C346        C  0.93233283  0.21409554  0.38165020     0.74830
O347        O  0.92375581  0.34510680  0.25861648    -0.70050
O348        O  0.96865476  0.35103395  0.20472525    -0.48730
C349        C  0.93620726  0.36108344  0.22398197     0.76210
O350        O  0.94022011  0.14085573  0.26824683    -0.65380
O351        O  0.97433210  0.14089391  0.33002207    -0.52580
C352        C  0.95008956  0.12554973  0.30345283     0.74590
Zr353      Zr  0.95299337  0.20115352  0.22755084     2.77540
O354        O  0.87967907  0.21492697  0.22640800    -0.96130
O355        O  0.93214549  0.14455042  0.18430318    -0.76950
Zr356      Zr  0.94961406  0.29244847  0.30848092     2.70070
O357        O  0.87962824  0.31336960  0.32344857    -0.78200
O358        O  0.96088707  0.34053690  0.36446715    -0.97280
Zr359      Zr  0.01364917  0.20082509  0.32591882     2.21500
Zr360      Zr  0.01354120  0.29547941  0.21172114     2.11130
O361        O  0.94979636  0.27165343  0.23765226    -2.45970
O362        O  0.95021321  0.22183706  0.29751152    -0.77990
O363        O  0.01443348  0.22544114  0.19891619    -0.70190
O364        O  0.01286564  0.27120723  0.33957185    -2.31140
O365        O  0.01447212  0.17624723  0.25661723    -2.27350
O366        O  0.01273176  0.31911898  0.28114534    -0.71940
H367        H  0.10060947  0.28290299  0.22287573     0.80050
H368        H  0.01256203  0.27622267  0.36910505     0.81140
H369        H  0.92672665  0.28158530  0.22192355     0.83370
H370        H  0.01468732  0.14719654  0.25476557     0.80970
H371        H  0.07181844  0.32915099  0.38973857     0.44010
H372        H  0.96389365  0.36685088  0.35025540     0.42980
H373        H  0.86245631  0.29590350  0.30557430     0.42660
H374        H  0.87296496  0.21792051  0.19659255     0.40590
H375        H  0.95814815  0.13086506  0.17702825     0.43720
H376        H  0.07890675  0.12566394  0.18807876     0.38510
H377        H  0.16054168  0.19617457  0.24937909     0.44620
H378        H  0.16201460  0.31002802  0.30688438     0.41040
H379        H  0.86680294  0.18907063  0.23457279     0.45960
H380        H  0.12474095  0.13847167  0.19490629     0.44680
H381        H  0.14239346  0.34644308  0.33079531     0.44820
H382        H  0.93425627  0.34237433  0.37906693     0.45170
O383        O  0.18022414  0.90811109  0.27254141    -0.73700
O384        O  0.17730493  0.94396666  0.33290579    -0.51890
C385        C  0.16341263  0.91851033  0.30702868     0.80030
O386        O  0.38293578  0.89394147  0.26629284    -0.58300
O387        O  0.39534090  0.94172023  0.21728908    -0.51330
C388        C  0.40119957  0.90711002  0.23316930     0.72050
O389        O  0.27755752  0.89003869  0.36093077    -0.72860
O390        O  0.24390749  0.94278917  0.38843755    -0.53420
C391        C  0.25041294  0.90525152  0.38584158     0.78050
O392        O  0.27176851  0.91567698  0.16294750    -0.58000
O393        O  0.33416483  0.94645671  0.15887815    -0.51120
C394        C  0.30528315  0.92513247  0.14426246     0.74640
Zr395      Zr  0.24138964  0.92295902  0.23177323     2.54710
O396        O  0.24886269  0.84987636  0.23206763    -0.78570
O397        O  0.18577542  0.91272993  0.18240120    -0.91980
Zr398      Zr  0.33178403  0.92285485  0.31660204     2.64680
O399        O  0.35524498  0.85739832  0.34150644    -0.96940
O400        O  0.38029248  0.93721945  0.37208356    -0.79000
O401        O  0.26047981  0.92184653  0.30252185    -0.82360
O402        O  0.31239038  0.92158089  0.24535875    -2.17070
O403        O  0.26824902  0.04813378  0.16080623    -0.65750
O404        O  0.33235698  0.02092831  0.15793521    -0.50310
C405        C  0.30222725  0.03993369  0.14245262     0.73020
O406        O  0.27517145  0.07964215  0.36047160    -0.58650
O407        O  0.24072297  0.02692615  0.38746950    -0.50630
C408        C  0.24765925  0.06440632  0.38506825     0.74830
O409        O  0.38199284  0.07585308  0.26578591    -0.70050
O410        O  0.39419111  0.02813953  0.21655474    -0.48730
C411        C  0.40042931  0.06249595  0.23281416     0.76210
O412        O  0.17770168  0.05658991  0.26980192    -0.65380
O413        O  0.17570115  0.02230898  0.33117257    -0.52580
C414        C  0.16102540  0.04648619  0.30440747     0.74590
Zr415      Zr  0.23994500  0.04337824  0.23059023     2.77540
O416        O  0.24734573  0.11647695  0.23014344    -0.96130
O417        O  0.18353508  0.05462800  0.18251017    -0.76950
Zr418      Zr  0.32986058  0.04782052  0.31554221     2.70070
O419        O  0.35062443  0.11627073  0.33311537    -0.78200
O420        O  0.37777701  0.03645918  0.37236550    -0.97280
Zr421      Zr  0.23690030  0.98414592  0.32921318     2.21500
Zr422      Zr  0.33722038  0.98435292  0.22053022     2.11130
O423        O  0.31088296  0.04693025  0.24418965    -2.45970
O424        O  0.25863659  0.04660565  0.30136645    -0.77990
O425        O  0.26678412  0.98321765  0.20287960    -0.70190
O426        O  0.30766261  0.98528033  0.34576082    -2.31140
O427        O  0.21406340  0.98308161  0.25917621    -2.27350
O428        O  0.35882269  0.98550917  0.29046507    -0.71940
H429        H  0.32231728  0.89869998  0.22984187     0.80050
H430        H  0.31162397  0.98565189  0.37547197     0.81140
H431        H  0.32072407  0.06967899  0.22839408     0.83370
H432        H  0.18458463  0.98254736  0.25665897     0.80970
H433        H  0.36578665  0.92912375  0.39776009     0.44010
H434        H  0.40327847  0.02734218  0.35859852     0.42980
H435        H  0.33325712  0.13366667  0.31536205     0.42660
H436        H  0.25715974  0.12295372  0.20183728     0.40590
H437        H  0.17255762  0.02731190  0.17695370     0.43720
H438        H  0.16429274  0.93213328  0.19091956     0.38510
H439        H  0.22155115  0.83957695  0.24026996     0.44620
H440        H  0.34752987  0.83819352  0.31930078     0.41040
H441        H  0.21887860  0.12681752  0.23087204     0.45960
H442        H  0.17432130  0.88590701  0.18935199     0.44680
H443        H  0.38555193  0.85860606  0.34043407     0.44820
H444        H  0.38445282  0.06359375  0.38323711     0.45170
O445        O  0.36975225  0.23964575  0.09262139    -0.73700
O446        O  0.39116794  0.19748479  0.04148229    -0.52610
C447        C  0.39266327  0.21056474  0.07844622     0.80030
O448        O  0.16622812  0.22162465  0.05836250    -0.58300
O449        O  0.16146433  0.28648419  0.03573223    -0.51330
C450        C  0.14667230  0.25449850  0.05176809     0.72050
O451        O  0.27104559  0.13735157  0.07032789    -0.72860
O452        O  0.33254214  0.13453264  0.03692575    -0.53420
C453        C  0.30445192  0.11983188  0.05986035     0.78050
O454        O  0.27184287  0.34332934  0.08822593    -0.58000
O455        O  0.21834395  0.35069923  0.04324318    -0.51120
C456        C  0.23776304  0.36006170  0.07611729     0.74640
Zr457      Zr  0.32002001  0.28971910  0.06123273     2.54710
O458        O  0.33547163  0.30842391  0.13256578    -0.78570
O459        O  0.37407846  0.33963506  0.05211847    -0.91980
Zr460      Zr  0.23741373  0.20141343  0.06017063     2.64680
O461        O  0.24231264  0.21737121  0.13378684    -0.96940
O462        O  0.19247593  0.14957550  0.08834685    -0.79000
O463        O  0.30743080  0.21915309  0.06206604    -0.82360
O464        O  0.24938561  0.27132066  0.06209248    -2.17070
O465        O  0.27200677  0.34347761  0.90732953    -0.65750
O466        O  0.21862745  0.35093601  0.95241469    -0.50310
C467        C  0.23807568  0.36034065  0.91960002     0.73020
O468        O  0.27101192  0.13740800  0.92511898    -0.58650
O469        O  0.33255319  0.13454617  0.95842161    -0.50630
C470        C  0.30444648  0.11990044  0.93545202     0.74830
O471        O  0.16585958  0.22060839  0.93894536    -0.70050
O472        O  0.16154291  0.28618257  0.95914980    -0.48730
C473        C  0.14647773  0.25374911  0.94432448     0.76210
O474        O  0.36947836  0.23921082  0.90257059    -0.65380
O475        O  0.39118421  0.19756500  0.95401945    -0.52580
C476        C  0.39252102  0.21032810  0.91693535     0.74590
Zr477      Zr  0.31999957  0.28950273  0.93388977     2.77540
O478        O  0.33742831  0.30703282  0.86258984    -0.96130
O479        O  0.37439974  0.33852968  0.94513982    -0.76950
Zr480      Zr  0.23722675  0.20130908  0.93531961     2.70070
O481        O  0.24059108  0.21816070  0.86181560    -0.78200
O482        O  0.19482840  0.14785349  0.90600238    -0.97280
Zr483      Zr  0.33331460  0.19547362  0.99772658     2.21500
Zr484      Zr  0.22337277  0.29499296  0.99759864     2.11130
O485        O  0.24931702  0.27124130  0.93306731    -2.45970
O486        O  0.30725182  0.21898188  0.93343542    -0.77990
O487        O  0.29299069  0.31644238  0.99751160    -0.70190
O488        O  0.26374697  0.17486051  0.99773843    -2.31140
O489        O  0.34945677  0.26559955  0.99755971    -2.27350
O490        O  0.20881366  0.22532079  0.99776262    -0.71940
H491        H  0.23432542  0.28164584  0.08557368     0.80050
H492        H  0.25952934  0.14609266  0.99774741     0.81140
H493        H  0.23426827  0.28168712  0.90962950     0.83370
H494        H  0.37881409  0.26938031  0.99741369     0.80970
H495        H  0.18208475  0.13500329  0.06366722     0.44010
H496        H  0.17536725  0.14052872  0.92834927     0.42980
H497        H  0.25472154  0.19487531  0.84894823     0.42660
H498        H  0.31215687  0.30163298  0.84649262     0.40590
H499        H  0.36048090  0.36500370  0.94321647     0.43720
H500        H  0.36590290  0.35520527  0.02725978     0.38510
H501        H  0.31716795  0.29119296  0.14950046     0.44620
H502        H  0.21351084  0.22045451  0.14295538     0.41040
H503        H  0.34031001  0.33676148  0.86240369     0.45960
H504        H  0.39849052  0.32409875  0.04333196     0.44680
H505        H  0.25160673  0.19194964  0.14688918     0.44820
H506        H  0.17777687  0.16112369  0.88454846     0.45170
O507        O  0.85053096  0.05604320  0.27040526    -0.73700
O508        O  0.85235175  0.02171609  0.33171839    -0.52610
C509        C  0.86714549  0.04589867  0.30500205     0.80030
O510        O  0.64644288  0.07427601  0.26374176    -0.58300
O511        O  0.63453114  0.02660046  0.21444356    -0.51330
C512        C  0.62831561  0.06105883  0.23051339     0.72050
O513        O  0.75191710  0.07797087  0.35961548    -0.72860
O514        O  0.78572242  0.02528455  0.38734965    -0.53420
C515        C  0.77901804  0.06278299  0.38470142     0.78050
O516        O  0.76161895  0.04662647  0.16040983    -0.58000
O517        O  0.69727900  0.02006984  0.15674386    -0.51120
C518        C  0.72792189  0.03846048  0.14154097     0.74640
Zr519      Zr  0.78844209  0.04323435  0.23080933     2.54710
O520        O  0.77897309  0.11608289  0.23178517    -0.78570
O521        O  0.84360811  0.05784512  0.18206655    -0.91980
Zr522      Zr  0.69753476  0.04578260  0.31458449     2.64680
O523        O  0.67520545  0.11214849  0.33793321    -0.96940
O524        O  0.64855389  0.03272389  0.36997700    -0.79000
O525        O  0.76899993  0.04548320  0.30135904    -0.82360
O526        O  0.71730114  0.04601691  0.24341099    -2.17070
O527        O  0.76135057  0.91939673  0.16044534    -0.65750
O528        O  0.69716856  0.94637528  0.15682904    -0.50310
C529        C  0.72765005  0.92775333  0.14161527     0.73020
O530        O  0.75077593  0.88838306  0.35992909    -0.58650
O531        O  0.78448820  0.94113626  0.38756815    -0.50630
C532        C  0.77775560  0.90362780  0.38501688     0.74830
O533        O  0.64551724  0.89264473  0.26458092    -0.70050
O534        O  0.63472552  0.93964638  0.21430665    -0.48730
C535        C  0.62777902  0.90563103  0.23107600     0.76210
O536        O  0.84990016  0.90884677  0.27120314    -0.65380
O537        O  0.85154524  0.94345511  0.33238348    -0.52580
C538        C  0.86624058  0.91887457  0.30603578     0.74590
Zr539      Zr  0.78822718  0.92268536  0.23095590     2.77540
O540        O  0.77850702  0.84985956  0.23079212    -0.96130
O541        O  0.84492482  0.90881535  0.18396543    -0.76950
Zr542      Zr  0.69716924  0.92090695  0.31464158     2.70070
O543        O  0.67384668  0.85384149  0.33436467    -0.78200
O544        O  0.64884068  0.93374384  0.37065777    -0.97280
Zr545      Zr  0.79140377  0.98304251  0.32879662     2.21500
Zr546      Zr  0.69190826  0.98325389  0.21904787     2.11130
O547        O  0.71703582  0.92048830  0.24357753    -2.45970
O548        O  0.76865730  0.92066647  0.30146573    -0.77990
O549        O  0.76258794  0.98299182  0.20253171    -0.70190
O550        O  0.72038206  0.98329228  0.34449346    -2.31140
O551        O  0.81481767  0.98290484  0.25894209    -2.27350
O552        O  0.66953766  0.98339099  0.28874171    -0.71940
H553        H  0.70767523  0.06879209  0.22752416     0.80050
H554        H  0.71609319  0.98330759  0.37415959     0.81140
H555        H  0.70709951  0.89773325  0.22785701     0.83370
H556        H  0.84430437  0.98268945  0.25652085     0.80970
H557        H  0.66293039  0.04121429  0.39559507     0.44010
H558        H  0.62193209  0.92554238  0.35921678     0.42980
H559        H  0.69074025  0.83528318  0.31740978     0.42660
H560        H  0.77007549  0.84341324  0.20202354     0.40590
H561        H  0.85629576  0.93574794  0.17734027     0.43720
H562        H  0.86546301  0.03821475  0.18890444     0.38510
H563        H  0.80355193  0.12657310  0.24622788     0.44620
H564        H  0.68294782  0.13067926  0.31513971     0.41040
H565        H  0.80654590  0.83867379  0.23323606     0.45960
H566        H  0.85469991  0.08429663  0.19088353     0.44680
H567        H  0.64487618  0.11129746  0.33718823     0.44820
H568        H  0.65521286  0.91309193  0.39189496     0.45170
O569        O  0.75996848  0.13581838  0.07010842    -0.73700
O570        O  0.69890237  0.13223042  0.03608191    -0.52610
C571        C  0.72698641  0.11781350  0.05911663     0.80030
O572        O  0.75689413  0.34276825  0.08715724    -0.58300
O573        O  0.81087343  0.35019398  0.04276467    -0.51330
C574        C  0.79087759  0.35978359  0.07518357     0.72050
O575        O  0.65897561  0.23895179  0.09224946    -0.72860
O576        O  0.64115232  0.19342158  0.04264423    -0.53420
C577        C  0.63747795  0.20859118  0.07863278     0.78050
O578        O  0.86427610  0.22014218  0.05725784    -0.58000
O579        O  0.86857461  0.28550936  0.03622932    -0.51120
C580        C  0.88371073  0.25317330  0.05119173     0.74640
Zr581      Zr  0.79299612  0.20053635  0.06100806     2.54710
O582        O  0.78619138  0.21767347  0.13419527    -0.78570
O583        O  0.84004659  0.15262233  0.09312577    -0.91980
Zr584      Zr  0.70945315  0.28819298  0.06073090     2.64680
O585        O  0.69033738  0.30714529  0.13118442    -0.96940
O586        O  0.65573905  0.33713486  0.04609144    -0.79000
O587        O  0.72289490  0.21776099  0.06199312    -0.82360
O588        O  0.78034005  0.27043653  0.06240223    -2.17070
O589        O  0.86506779  0.21923019  0.94017190    -0.65750
O590        O  0.86878321  0.28501598  0.95980591    -0.50310
C591        C  0.88419764  0.25251161  0.94547091     0.73020
O592        O  0.65889639  0.23882952  0.90265186    -0.58650
O593        O  0.64165788  0.19279866  0.95201761    -0.50630
C594        C  0.63759977  0.20832163  0.91624002     0.74830
O595        O  0.75704904  0.34248906  0.90797424    -0.70050
O596        O  0.81084791  0.34984721  0.95266065    -0.48730
C597        C  0.79090260  0.35953576  0.92023733     0.76210
O598        O  0.76122026  0.13542071  0.92580518    -0.65380
O599        O  0.69987771  0.13192451  0.95933196    -0.52580
C600        C  0.72811765  0.11748337  0.93645329     0.74590
Zr601      Zr  0.79388351  0.19994848  0.93590871     2.77540
O602        O  0.79062914  0.21630604  0.86228712    -0.96130
O603        O  0.83906960  0.14861391  0.90714784    -0.76950
Zr604      Zr  0.71014228  0.28745776  0.93385423     2.70070
O605        O  0.69644535  0.30537339  0.86192213    -0.78200
O606        O  0.65575049  0.33628691  0.94610276    -0.97280
Zr607      Zr  0.69804837  0.19331544  0.99760910     2.21500
Zr608      Zr  0.80667222  0.29392643  0.99792050     2.11130
O609        O  0.78102866  0.26976950  0.93347474    -2.45970
O610        O  0.72374439  0.21704229  0.93332993    -0.77990
O611        O  0.82142800  0.22444820  0.99852097    -0.70190
O612        O  0.68057055  0.26305743  0.99724380    -2.31140
O613        O  0.76774584  0.17325844  0.99835557    -2.27350
O614        O  0.73691797  0.31477579  0.99729701    -0.71940
H615        H  0.79508430  0.28119068  0.08589269     0.80050
H616        H  0.65114980  0.26641320  0.99702671     0.81140
H617        H  0.79593254  0.28050318  0.91007729     0.83370
H618        H  0.77252086  0.14458031  0.99832476     0.80970
H619        H  0.63013907  0.32359745  0.05495312     0.44010
H620        H  0.67003827  0.36261253  0.94726928     0.42980
H621        H  0.71530485  0.28809608  0.84567742     0.42660
H622        H  0.81961872  0.21964918  0.85384496     0.40590
H623        H  0.84941535  0.13371006  0.93163924     0.43720
H624        H  0.84142610  0.12957093  0.07363355     0.38510
H625        H  0.76558852  0.19838108  0.14492845     0.44620
H626        H  0.71534026  0.30248195  0.14793914     0.41040
H627        H  0.78183598  0.19090128  0.84880009     0.45960
H628        H  0.82548526  0.14202856  0.11779290     0.44680
H629        H  0.68706734  0.33682940  0.13050988     0.44820
H630        H  0.64011846  0.33707397  0.91977810     0.45170
O631        O  0.09034954  0.82351138  0.72243225    -0.73700
O632        O  0.05525132  0.82357903  0.66121649    -0.52610
C633        C  0.08040198  0.83859537  0.68717475     0.80030
O634        O  0.10387148  0.62050713  0.73689536    -0.58300
O635        O  0.05959462  0.61576368  0.79139941    -0.51330
C636        C  0.09183303  0.60527471  0.77199460     0.72050
O637        O  0.11009271  0.72343246  0.63872475    -0.72860
O638        O  0.05688414  0.75501161  0.60831657    -0.53420
C639        C  0.09502657  0.74885691  0.61203544     0.78050
O640        O  0.07671844  0.74642517  0.83818717    -0.58000
O641        O  0.05262175  0.68242869  0.84612615    -0.51120
C642        C  0.06909370  0.71465560  0.85963617     0.74640
Zr643      Zr  0.07695906  0.76462260  0.76502189     2.54710
O644        O  0.15010545  0.75000551  0.76369685    -0.78570
O645        O  0.09892146  0.82042031  0.80901048    -0.91980
Zr646      Zr  0.07713235  0.67181853  0.68604820     2.64680
O647        O  0.14521432  0.64941856  0.66511245    -0.96940
O648        O  0.06350362  0.62274176  0.63155737    -0.79000
O649        O  0.07767343  0.74263880  0.69545019    -0.82360
O650        O  0.07876929  0.69389831  0.75648948    -2.17070
O651        O  0.95398535  0.74646533  0.83922530    -0.65750
O652        O  0.97851390  0.68254583  0.84670242    -0.50310
C653        C  0.96174007  0.71454431  0.86040391     0.73020
O654        O  0.91803188  0.72354114  0.63957164    -0.58650
O655        O  0.97108562  0.75534526  0.60896847    -0.50630
C656        C  0.93299691  0.74890254  0.61278136     0.74830
O657        O  0.92447288  0.62154661  0.73871362    -0.70050
O658        O  0.96946698  0.61663372  0.79262346    -0.48730
C659        C  0.93679262  0.60640141  0.77378016     0.76210
O660        O  0.94021298  0.82469158  0.72429122    -0.65380
O661        O  0.97386136  0.82392018  0.66223070    -0.52580
C662        C  0.94947272  0.83940188  0.68865833     0.74590
Zr663      Zr  0.95432294  0.76561559  0.76629484     2.77540
O664        O  0.88077393  0.75312683  0.76735864    -0.96130
O665        O  0.93667868  0.82347995  0.80921767    -0.76950
Zr666      Zr  0.95100824  0.67258066  0.68747050     2.70070
O667        O  0.88145993  0.65068335  0.67188445    -0.78200
O668        O  0.96311221  0.62321944  0.63284738    -0.97280
Zr669      Zr  0.01442052  0.76455652  0.66708736     2.21500
Zr670      Zr  0.01506986  0.67163240  0.78408360     2.11130
O671        O  0.95134688  0.69496444  0.75773015    -2.45970
O672        O  0.95146426  0.74348499  0.69676153    -0.77990
O673        O  0.01573723  0.74194656  0.79544416    -0.70190
O674        O  0.01385020  0.69373428  0.65543816    -2.31140
O675        O  0.01551662  0.79010799  0.73616697    -2.27350
O676        O  0.01420071  0.64660116  0.71516574    -0.71940
H677        H  0.10201820  0.68414333  0.77205879     0.80050
H678        H  0.01346653  0.68794829  0.62605701     0.81140
H679        H  0.92824786  0.68552881  0.77372640     0.83370
H680        H  0.01566295  0.81919914  0.73734699     0.80970
H681        H  0.07365337  0.63578312  0.60589118     0.44010
H682        H  0.96591521  0.59724026  0.64773778     0.42980
H683        H  0.86385098  0.66829618  0.68915538     0.42660
H684        H  0.87398250  0.75013853  0.79715476     0.40590
H685        H  0.96342050  0.83572728  0.81646719     0.43720
H686        H  0.07952872  0.84261183  0.80289075     0.38510
H687        H  0.16165105  0.77010630  0.74420541     0.44620
H688        H  0.16317102  0.65615242  0.68890527     0.41040
H689        H  0.86837321  0.77923355  0.75929192     0.45960
H690        H  0.12542660  0.82947332  0.79727458     0.44680
H691        H  0.14388327  0.61958316  0.66494308     0.44820
H692        H  0.93671654  0.62102408  0.61786392     0.45170
O693        O  0.74988007  0.07727033  0.63625208    -0.73700
O694        O  0.78132031  0.02474528  0.60571217    -0.52610
C695        C  0.77601911  0.06231584  0.61013173     0.80030
O696        O  0.76210850  0.04674897  0.83387727    -0.58300
O697        O  0.69799673  0.01977747  0.83847996    -0.51330
C698        C  0.72869216  0.03846215  0.85322064     0.72050
O699        O  0.84896500  0.05734303  0.72240018    -0.72860
O700        O  0.85039153  0.02320018  0.66090857    -0.53420
C701        C  0.86513705  0.04770541  0.68741766     0.78050
O702        O  0.64509307  0.07321182  0.73187666    -0.58000
O703        O  0.63448733  0.02596745  0.78189845    -0.51120
C704        C  0.62765274  0.06018274  0.76553214     0.74640
Zr705      Zr  0.69573468  0.04482802  0.68072107     2.54710
O706        O  0.67246605  0.11175194  0.66056571    -0.78570
O707        O  0.64615957  0.03630408  0.62489444    -0.91980
Zr708      Zr  0.78780349  0.04327208  0.76298197     2.64680
O709        O  0.77764087  0.11603862  0.76271995    -0.96940
O710        O  0.84500127  0.05766698  0.80918659    -0.79000
O711        O  0.76743630  0.04506219  0.69271675    -0.82360
O712        O  0.71646661  0.04554622  0.75150718    -2.17070
O713        O  0.64551072  0.89196574  0.73154690    -0.65750
O714        O  0.63478527  0.93911962  0.78165269    -0.50310
C715        C  0.62784293  0.90505539  0.76501072     0.73020
O716        O  0.84953476  0.90912004  0.72259636    -0.58650
O717        O  0.85099819  0.94362801  0.66129887    -0.50630
C718        C  0.86578919  0.91906973  0.68772490     0.74830
O719        O  0.76199700  0.91924713  0.83424626    -0.70050
O720        O  0.69777744  0.94600016  0.83853359    -0.48730
C721        C  0.72845962  0.92748508  0.85344305     0.76210
O722        O  0.75125120  0.88783281  0.63667533    -0.65380
O723        O  0.78293626  0.94031171  0.60615181    -0.52580
C724        C  0.77749618  0.90275029  0.61061227     0.74590
Zr725      Zr  0.69662920  0.92001137  0.68083623     2.77540
O726        O  0.67566093  0.85260114  0.65936058    -0.96130
O727        O  0.64790620  0.93009704  0.62459889    -0.76950
Zr728      Zr  0.78840683  0.92293551  0.76345171     2.70070
O729        O  0.77897059  0.85007877  0.76398450    -0.78200
O730        O  0.84668762  0.90987892  0.80880838    -0.97280
Zr731      Zr  0.79029451  0.98295228  0.66453184     2.21500
Zr732      Zr  0.69186533  0.98271240  0.77633823     2.11130
O733        O  0.71708285  0.91995258  0.75173724    -2.45970
O734        O  0.76820700  0.92079517  0.69313145    -0.77990
O735        O  0.66856000  0.98228016  0.70686705    -0.70190
O736        O  0.81410145  0.98316033  0.73437328    -2.31140
O737        O  0.71874112  0.98247634  0.65041252    -2.27350
O738        O  0.76276979  0.98307008  0.79210868    -0.71940
H739        H  0.70688784  0.06831467  0.76742925     0.80050
H740        H  0.84361954  0.98330801  0.73641853     0.81140
H741        H  0.70746825  0.89717812  0.76763789     0.83370
H742        H  0.71383670  0.98225723  0.62085401     0.80970
H743        H  0.85596224  0.03077279  0.81663146     0.44010
H744        H  0.84627297  0.93220027  0.82922122     0.42980
H745        H  0.80672683  0.83899632  0.75903809     0.42660
H746        H  0.68382324  0.83483080  0.68264335     0.40590
H747        H  0.62079557  0.92996099  0.63841261     0.43720
H748        H  0.63306958  0.00991013  0.63032575     0.38510
H749        H  0.68922305  0.13040256  0.67755362     0.44620
H750        H  0.77041800  0.12276095  0.79175599     0.41040
H751        H  0.64532071  0.85277718  0.66007176     0.45960
H752        H  0.66281440  0.03206345  0.59958545     0.44680
H753        H  0.80547491  0.12735816  0.75890855     0.44820
H754        H  0.83889075  0.88564425  0.82495274     0.45170
O755        O  0.65741214  0.72715924  0.09218959    -0.73700
O756        O  0.63871386  0.77205976  0.04232487    -0.52610
C757        C  0.63542426  0.75716933  0.07847919     0.80030
O758        O  0.86280124  0.74594325  0.05944747    -0.58300
O759        O  0.86766439  0.68123282  0.03642071    -0.51330
C760        C  0.88236083  0.71308754  0.05286999     0.72050
O761        O  0.75870203  0.83066516  0.07006215    -0.72860
O762        O  0.69742385  0.83390132  0.03629021    -0.53420
C763        C  0.72560151  0.84848496  0.05916951     0.78050
O764        O  0.75684700  0.62442994  0.08827344    -0.58000
O765        O  0.81055528  0.61705504  0.04352563    -0.51120
C766        C  0.79099613  0.60768882  0.07630622     0.74640
Zr767      Zr  0.70875623  0.67824219  0.06127009     2.54710
O768        O  0.69397996  0.66045130  0.13299224    -0.78570
O769        O  0.65537076  0.62768754  0.05181717    -0.91980
Zr770      Zr  0.79168971  0.76623963  0.06049790     2.64680
O771        O  0.78590527  0.75029960  0.13405115    -0.96940
O772        O  0.83662079  0.81776835  0.08929430    -0.79000
O773        O  0.72156001  0.74879582  0.06215482    -0.82360
O774        O  0.77948028  0.69643132  0.06229925    -2.17070
O775        O  0.75700669  0.62436638  0.90756532    -0.65750
O776        O  0.81051324  0.61697216  0.95255159    -0.50310
C777        C  0.79100907  0.60756974  0.91976122     0.73020
O778        O  0.75942368  0.83072158  0.92588893    -0.58650
O779        O  0.69788192  0.83400673  0.95912685    -0.50630
C780        C  0.72627398  0.84857202  0.93647695     0.74830
O781        O  0.86352131  0.74685568  0.93893194    -0.70050
O782        O  0.86782418  0.68142650  0.95960826    -0.48730
C783        C  0.88288742  0.71374033  0.94448026     0.76210
O784        O  0.65767358  0.72715492  0.90305536    -0.65380
O785        O  0.63894668  0.77208864  0.95287486    -0.52580
C786        C  0.63563713  0.75709568  0.91677679     0.74590
Zr787      Zr  0.70906201  0.67844862  0.93401495     2.77540
O788        O  0.69287498  0.66214225  0.86211192    -0.96130
O789        O  0.65551803  0.62848960  0.94510448    -0.76950
Zr790      Zr  0.79220994  0.76630528  0.93551947     2.70070
O791        O  0.78809467  0.74934721  0.86207788    -0.78200
O792        O  0.83472508  0.81924296  0.90537945    -0.97280
Zr793      Zr  0.69608245  0.77267801  0.99771695     2.21500
Zr794      Zr  0.80581725  0.67278442  0.99792423     2.11130
O795        O  0.77984353  0.69650383  0.93337632    -2.45970
O796        O  0.72204718  0.74895797  0.93347437    -0.77990
O797        O  0.73606310  0.65154166  0.99766608    -0.70190
O798        O  0.76580245  0.79275199  0.99793038    -2.31140
O799        O  0.67951825  0.70265618  0.99755675    -2.27350
O800        O  0.82055484  0.74239976  0.99811350    -0.71940
H801        H  0.79442388  0.68607251  0.08584441     0.80050
H802        H  0.77045053  0.82144400  0.99800473     0.81140
H803        H  0.79489088  0.68603960  0.90995121     0.83370
H804        H  0.65013530  0.69906516  0.99733897     0.80970
H805        H  0.84742828  0.83229045  0.06476763     0.44010
H806        H  0.85435180  0.82671259  0.92752968     0.42980
H807        H  0.77394816  0.77267091  0.84929800     0.42660
H808        H  0.71857626  0.66730500  0.84664622     0.40590
H809        H  0.66986454  0.60225390  0.94296393     0.43720
H810        H  0.66446362  0.61152070  0.02769846     0.38510
H811        H  0.71251073  0.67783206  0.14950889     0.44620
H812        H  0.81459538  0.74724768  0.14358857     0.41040
H813        H  0.68947609  0.63247233  0.86147274     0.45960
H814        H  0.63115644  0.64279275  0.04176220     0.44680
H815        H  0.77642588  0.77571662  0.14702201     0.44820
H816        H  0.85158616  0.80568129  0.88396810     0.45170
C817        C  0.72358869  0.91189193  0.89349904    -0.11680
C818        C  0.72103757  0.88715152  0.91982720    -0.13240
C819        C  0.94750453  0.71350666  0.90154361    -0.11680
C820        C  0.92292546  0.71240763  0.92864229    -0.13240
C821        C  0.90286329  0.89989023  0.67766800    -0.11680
C822        C  0.92916248  0.87517554  0.67772782    -0.13240
C823        C  0.72253993  0.07902440  0.91957242    -0.11680
C824        C  0.72416217  0.05418130  0.89326733    -0.13240
C825        C  0.72302968  0.05410118  0.10155393    -0.11680
C826        C  0.72140773  0.07921034  0.07555645    -0.13240
C827        C  0.72012207  0.88711305  0.07558461    -0.11680
C828        C  0.72242049  0.91211252  0.10165354    -0.13240
C829        C  0.30815000  0.05627124  0.10281864    -0.11680
C830        C  0.31038434  0.08143159  0.07684599    -0.13240
C831        C  0.08180157  0.25569616  0.09413440    -0.11680
C832        C  0.10656975  0.25616511  0.06725354    -0.13240
C833        C  0.92407343  0.25444231  0.06602249    -0.11680
C834        C  0.94885885  0.25360645  0.09287522    -0.13240
C835        C  0.90460389  0.06443431  0.31437229    -0.11680
C836        C  0.93069978  0.08925905  0.31389481    -0.13240
C837        C  0.12377125  0.06523465  0.31403666    -0.11680
C838        C  0.09790424  0.09026241  0.31446503    -0.13240
C839        C  0.31222658  0.90809820  0.10512321    -0.11680
C840        C  0.31511998  0.88335503  0.07881198    -0.13240
C841        C  0.10701907  0.71349574  0.92842022    -0.11680
C842        C  0.08287055  0.71421329  0.90093041    -0.13240
C843        C  0.92959957  0.87529694  0.31765715    -0.11680
C844        C  0.90323803  0.89984966  0.31642247    -0.13240
C845        C  0.10041267  0.87448154  0.31887014    -0.11680
C846        C  0.12673012  0.89904838  0.31755947    -0.13240
C847        C  0.92231335  0.71133905  0.06886606    -0.11680
C848        C  0.94703075  0.71195084  0.09584074    -0.13240
C849        C  0.10764076  0.71283926  0.06939432    -0.11680
C850        C  0.08295973  0.71334582  0.09639021    -0.13240
C851        C  0.92437077  0.25379189  0.93013172    -0.11680
C852        C  0.94860464  0.25274502  0.90276421    -0.13240
C853        C  0.08181197  0.25402436  0.90160545    -0.11680
C854        C  0.10639948  0.25499250  0.92867282    -0.13240
C855        C  0.92819180  0.09207647  0.67784680    -0.11680
C856        C  0.90205579  0.06719405  0.67741505    -0.13240
C857        C  0.31011482  0.90832748  0.89056855    -0.11680
C858        C  0.31313886  0.88381828  0.91715335    -0.13240
C859        C  0.30802721  0.05678169  0.89185084    -0.11680
C860        C  0.31038075  0.08165073  0.91811759    -0.13240
C861        C  0.09987956  0.09265608  0.67787142    -0.11680
C862        C  0.12603961  0.06782041  0.67794298    -0.13240
C863        C  0.12664413  0.89932818  0.67691153    -0.11680
C864        C  0.10056959  0.87442153  0.67634441    -0.13240
C865        C  0.90406376  0.55208705  0.82261147    -0.11680
C866        C  0.91311020  0.57674165  0.79623718    -0.13240
C867        C  0.81183570  0.57707180  0.89566373    -0.11680
C868        C  0.83776350  0.55210958  0.88697617    -0.13240
C869        C  0.90329296  0.41571677  0.82153462    -0.11680
C870        C  0.91321829  0.39152752  0.79519331    -0.13240
C871        C  0.83670365  0.41548057  0.88678128    -0.11680
C872        C  0.81108072  0.39063251  0.89648242    -0.13240
C873        C  0.91283543  0.57651229  0.20131921    -0.11680
C874        C  0.90374127  0.55196707  0.17481236    -0.13240
C875        C  0.81192477  0.57730960  0.10065194    -0.11680
C876        C  0.83777698  0.55231871  0.10971441    -0.13240
C877        C  0.91273325  0.39128492  0.20223585    -0.11680
C878        C  0.90293186  0.41554476  0.17582681    -0.13240
C879        C  0.81116524  0.39057730  0.09936855    -0.11680
C880        C  0.83675161  0.41526864  0.10969305    -0.13240
C881        C  0.82968243  0.50803131  0.02055479    -0.11750
C882        C  0.85461561  0.48136340  0.04375059     0.10400
C883        C  0.87787333  0.45338259  0.02047401    -0.11750
C884        C  0.87786981  0.45336898  0.97656842    -0.11750
C885        C  0.85463074  0.48135567  0.95328124     0.10400
C886        C  0.82971313  0.50804955  0.97644429    -0.11750
H887        H  0.80950046  0.52876903  0.03610136     0.14380
H888        H  0.89770019  0.43220352  0.03633726     0.14380
H889        H  0.89769066  0.43218016  0.96071589     0.14380
H890        H  0.80960473  0.52884455  0.96085684     0.14380
C891        C  0.11566159  0.57509356  0.20355510    -0.11680
C892        C  0.12444198  0.55062496  0.17690288    -0.13240
C893        C  0.18985690  0.55204152  0.11054585    -0.11680
C894        C  0.21598151  0.57626809  0.10034667    -0.13240
C895        C  0.12419796  0.41481207  0.17460810    -0.11680
C896        C  0.11403683  0.39107733  0.20142031    -0.13240
C897        C  0.21679648  0.39041039  0.10042123    -0.11680
C898        C  0.19091899  0.41533735  0.10952126    -0.13240
C899        C  0.03554453  0.50773539  0.18154524    -0.11750
C900        C  0.05853105  0.48070361  0.15673679     0.10400
C901        C  0.03528986  0.45248928  0.13362648    -0.11750
C902        C  0.99179899  0.45263813  0.13362129    -0.11750
C903        C  0.96877924  0.48100362  0.15673259     0.10400
C904        C  0.99193111  0.50786761  0.18155618    -0.11750
H905        H  0.05081667  0.52869931  0.20174048     0.14380
H906        H  0.05085275  0.43094965  0.11388919     0.14380
H907        H  0.97605578  0.43121227  0.11388975     0.14380
H908        H  0.97675662  0.52888347  0.20178230     0.14380
C909        C  0.12417413  0.55073121  0.82044224    -0.11680
C910        C  0.11541395  0.57527733  0.79391964    -0.13240
C911        C  0.18963901  0.55216296  0.88628624    -0.11680
C912        C  0.21570277  0.57653659  0.89609709    -0.13240
C913        C  0.12409553  0.41493599  0.82270089    -0.11680
C914        C  0.11389537  0.39117694  0.79598194    -0.13240
C915        C  0.21728099  0.39092652  0.89558282    -0.11680
C916        C  0.19128034  0.41584187  0.88695897    -0.13240
C917        C  0.19776215  0.45967588  0.97644282    -0.11750
C918        C  0.17297963  0.48648319  0.95326132     0.10400
C919        C  0.14996984  0.51463031  0.97659252    -0.11750
C920        C  0.14996204  0.51457810  0.02051403    -0.11750
C921        C  0.17298522  0.48639556  0.04379301     0.10400
C922        C  0.19779327  0.45966046  0.02054366    -0.11750
H923        H  0.21776244  0.43876707  0.96091006     0.14380
H924        H  0.13026726  0.53595116  0.96077865     0.14380
H925        H  0.13025102  0.53585848  0.03636972     0.14380
H926        H  0.21787961  0.43879627  0.03600934     0.14380
C927        C  0.03534828  0.45269581  0.86372510    -0.11750
C928        C  0.05853087  0.48073828  0.84037579     0.10400
C929        C  0.03558016  0.50757970  0.81532038    -0.11750
C930        C  0.99198606  0.50774054  0.81535463    -0.11750
C931        C  0.96890587  0.48108355  0.84046108     0.10400
C932        C  0.99189585  0.45286563  0.86376785    -0.11750
H933        H  0.05093022  0.43131191  0.88363117     0.14380
H934        H  0.05086810  0.52836021  0.79492670     0.14380
H935        H  0.97676683  0.52860197  0.79497350     0.14380
H936        H  0.97615813  0.43160240  0.88368900     0.14380
C937        C  0.57888558  0.87091657  0.81820674    -0.11680
C938        C  0.60048120  0.88034064  0.78914345    -0.13240
C939        C  0.60619306  0.77862340  0.89130817    -0.11680
C940        C  0.58132742  0.80482596  0.88277416    -0.13240
C941        C  0.42741092  0.88108310  0.78763632    -0.11680
C942        C  0.44818646  0.87131466  0.81722266    -0.13240
C943        C  0.42058936  0.77802724  0.89009748    -0.11680
C944        C  0.44471843  0.80497290  0.88181763    -0.13240
C945        C  0.60040778  0.88083254  0.20694423    -0.11680
C946        C  0.57888825  0.87131347  0.17780916    -0.13240
C947        C  0.58140888  0.80521163  0.11283569    -0.11680
C948        C  0.60614862  0.77892842  0.10404258    -0.13240
C949        C  0.44810806  0.87185635  0.17862510    -0.11680
C950        C  0.42746550  0.88182274  0.20826806    -0.13240
C951        C  0.44459886  0.80544636  0.11367212    -0.11680
C952        C  0.42066112  0.77838524  0.10508762    -0.13240
C953        C  0.47600848  0.82425453  0.01989806    -0.11750
C954        C  0.51270790  0.82382592  0.04341516     0.10400
C955        C  0.54936686  0.82414515  0.01987871    -0.11750
C956        C  0.54936732  0.82400360  0.97591886    -0.11750
C957        C  0.51270704  0.82357241  0.95238895     0.10400
C958        C  0.47600838  0.82411445  0.97587726    -0.11750
H959        H  0.44673814  0.82712985  0.03517615     0.14380
H960        H  0.57867038  0.82700314  0.03506362     0.14380
H961        H  0.57866946  0.82672348  0.96070120     0.14380
H962        H  0.44674654  0.82685936  0.96054352     0.14380
C963        C  0.60089370  0.08513296  0.79026813    -0.11680
C964        C  0.57972081  0.09485538  0.81961889    -0.13240
C965        C  0.58238453  0.16085433  0.88384241    -0.11680
C966        C  0.60780454  0.18688729  0.89116995    -0.13240
C967        C  0.44910492  0.09532662  0.81736727    -0.11680
C968        C  0.42800366  0.08609129  0.78786639    -0.13240
C969        C  0.44460642  0.16061419  0.88277343    -0.11680
C970        C  0.42037162  0.18728250  0.89126940    -0.13240
C971        C  0.47711670  0.00471617  0.84299213    -0.11750
C972        C  0.51387708  0.02755202  0.84303184     0.10400
C973        C  0.55046374  0.00445520  0.84378275    -0.11750
C974        C  0.55031100  0.96157090  0.84351345    -0.11750
C975        C  0.51355890  0.93874725  0.84257403     0.10400
C976        C  0.47696291  0.96182982  0.84279435    -0.11750
H977        H  0.44785541  0.01975974  0.84534013     0.14380
H978        H  0.57978484  0.01926912  0.84677591     0.14380
H979        H  0.57952333  0.94649868  0.84626889     0.14380
H980        H  0.44759723  0.94696728  0.84501378     0.14380
C981        C  0.58002392  0.09548424  0.17656099    -0.11680
C982        C  0.60142108  0.08597946  0.20584749    -0.13240
C983        C  0.60802472  0.18692476  0.10394364    -0.11680
C984        C  0.58267292  0.16092258  0.11165786    -0.13240
C985        C  0.42778922  0.08713241  0.20852225    -0.11680
C986        C  0.44911444  0.09610411  0.17905716    -0.13240
C987        C  0.42052254  0.18763006  0.10425235    -0.11680
C988        C  0.44470248  0.16097819  0.11302214    -0.13240
C989        C  0.47717374  0.00522245  0.15327619    -0.11750
C990        C  0.51394174  0.02805124  0.15331419     0.10400
C991        C  0.55051196  0.00491797  0.15248230    -0.11750
C992        C  0.55033727  0.96201588  0.15257409    -0.11750
C993        C  0.51358039  0.93918491  0.15342368     0.10400
C994        C  0.47700025  0.96231649  0.15326749    -0.11750
H995        H  0.44792198  0.02030810  0.15104640     0.14380
H996        H  0.57984322  0.01973181  0.14958849     0.14380
H997        H  0.57954200  0.94693939  0.14976875     0.14380
H998        H  0.44762485  0.94748753  0.15096264     0.14380
C999        C  0.47944268  0.12444578  0.02003907    -0.11750
C1000       C  0.51058941  0.14369475  0.04338192     0.10400
C1001       C  0.54032902  0.16476958  0.01998582    -0.11750
C1002       C  0.54034448  0.16469305  0.97590341    -0.11750
C1003       C  0.51056080  0.14359782  0.95259560     0.10400
C1004       C  0.47942024  0.12441019  0.97600323    -0.11750
H1005       H  0.45570256  0.10759506  0.03586676     0.14380
H1006       H  0.56374660  0.18183220  0.03538043     0.14380
H1007       H  0.56383247  0.18163031  0.96042872     0.14380
H1008       H  0.45565564  0.10754077  0.96023139     0.14380
C1009       C  0.90781446  0.77585014  0.58818879    -0.11680
C1010       C  0.89988384  0.80447684  0.56586787    -0.13240
C1011       C  0.83648535  0.87031639  0.56734051    -0.11680
C1012       C  0.80670085  0.87825321  0.58838343    -0.13240
C1013       C  0.83508622  0.87223191  0.43152709    -0.11680
C1014       C  0.80583957  0.87945552  0.40928328    -0.13240
C1015       C  0.89918831  0.80690898  0.42982789    -0.11680
C1016       C  0.90732099  0.77824880  0.40750330    -0.13240
C1017       C  0.89962693  0.16016249  0.56856075    -0.11680
C1018       C  0.90753916  0.18889537  0.59064401    -0.13240
C1019       C  0.83544324  0.09486205  0.56753257    -0.11680
C1020       C  0.80543920  0.08674399  0.58815548    -0.13240
C1021       C  0.90046838  0.15927269  0.43065709    -0.11680
C1022       C  0.90761912  0.18734202  0.40718114    -0.13240
C1023       C  0.83638468  0.09414233  0.43149464    -0.11680
C1024       C  0.80724390  0.08694497  0.40899324    -0.13240
C1025       C  0.88455697  0.96154860  0.52877082    -0.11750
C1026       C  0.85854932  0.93883471  0.50246201     0.10400
C1027       C  0.83101887  0.96161896  0.47798018    -0.11750
C1028       C  0.83109075  0.00467347  0.47800932    -0.11750
C1029       C  0.85872917  0.02730765  0.50248689     0.10400
C1030       C  0.88464884  0.00446820  0.52877673    -0.11750
H1031       H  0.90618317  0.94598516  0.54860993     0.14380
H1032       H  0.80851762  0.94622604  0.45952242     0.14380
H1033       H  0.80861365  0.02019453  0.45962515     0.14380
H1034       H  0.90632240  0.01994083  0.54864251     0.14380
C1035       C  0.22074846  0.08822772  0.58821236    -0.11680
C1036       C  0.19072963  0.09617773  0.56751868    -0.13240
C1037       C  0.11852689  0.19026410  0.59001413    -0.11680
C1038       C  0.12638976  0.16133671  0.56818826    -0.13240
C1039       C  0.12533004  0.16025112  0.43067603    -0.11680
C1040       C  0.11812358  0.18851293  0.40745471    -0.13240
C1041       C  0.19000732  0.09557179  0.43159909    -0.11680
C1042       C  0.21931662  0.08852958  0.40926688    -0.13240
C1043       C  0.03477053  0.11444282  0.52891590    -0.11750
C1044       C  0.05765613  0.13986777  0.50235669     0.10400
C1045       C  0.03464712  0.16669094  0.47748750    -0.11750
C1046       C  0.99097196  0.16654649  0.47752273    -0.11750
C1047       C  0.96819736  0.13955336  0.50241940     0.10400
C1048       C  0.99130796  0.11428660  0.52894303    -0.11750
H1049       H  0.05062382  0.09334265  0.54893403     0.14380
H1050       H  0.05033262  0.18854767  0.45864836     0.14380
H1051       H  0.97510633  0.18831243  0.45871060     0.14380
H1052       H  0.97563980  0.09306812  0.54897700     0.14380
C1053       C  0.12007747  0.77631905  0.58781339    -0.11680
C1054       C  0.12801642  0.80519009  0.56578498    -0.13240
C1055       C  0.22123540  0.87976464  0.58768930    -0.11680
C1056       C  0.19125040  0.87157222  0.56701968    -0.13240
C1057       C  0.12063829  0.77843190  0.40806230    -0.11680
C1058       C  0.12872449  0.80740831  0.43000410    -0.13240
C1059       C  0.19243649  0.87352647  0.43150150    -0.11680
C1060       C  0.22187956  0.88104449  0.40960294    -0.13240
C1061       C  0.19608285  0.96290969  0.47820163    -0.11750
C1062       C  0.16834706  0.93997357  0.50230158     0.10400
C1063       C  0.14186659  0.96255094  0.52823955    -0.11750
C1064       C  0.14156549  0.00547299  0.52827152    -0.11750
C1065       C  0.16773451  0.02845626  0.50237664     0.10400
C1066       C  0.19579465  0.00597454  0.47824158    -0.11750
H1067       H  0.21890750  0.94762525  0.46006134     0.14380
H1068       H  0.12006473  0.94686541  0.54777511     0.14380
H1069       H  0.11956084  0.02083387  0.54784884     0.14380
H1070       H  0.21842126  0.02163045  0.46014511     0.14380
C1071       C  0.03564292  0.82709894  0.46067228    -0.11750
C1072       C  0.05885454  0.82644666  0.49785080     0.10400
C1073       C  0.03562578  0.82604320  0.53500063    -0.11750
C1074       C  0.99217788  0.82587413  0.53500214    -0.11750
C1075       C  0.96893630  0.82611115  0.49785433     0.10400
C1076       C  0.99213713  0.82694292  0.46067431    -0.11750
H1077       H  0.05080536  0.82993464  0.43103153     0.14380
H1078       H  0.05071324  0.82811494  0.56474101     0.14380
H1079       H  0.97708145  0.82782558  0.56474343     0.14380
H1080       H  0.97695422  0.82968328  0.43103488     0.14380
loop_ 
_geom_bond_atom_site_label_1 
_geom_bond_atom_site_label_2 
_geom_bond_distance 
_geom_bond_site_symmetry_2 
_ccdc_geom_bond_type 
C1            C2   1.426       .  A
C1            C6   1.441       .  A
C1         C1058   1.469       .  S
C2            C3   1.423       .  A
C2         C1072   1.548       .  S
C3            C4   1.432       .  A
C3         C1054   1.466       .  S
C4            C5   1.421       .  A
C4         C1056   1.455       .  S
C5            C6   1.430       .  A
C5         C1062   1.549       .  S
C6         C1059   1.461       .  S
C7            C8   1.431       .  A
C7           C12   1.444       .  A
C7         C1041   1.464       .  S
C8            C9   1.419       .  A
C8         C1065   1.549       .  S
C9           C10   1.429       .  A
C9         C1036   1.455       .  S
C10          C11   1.417       .  A
C10        C1038   1.460       .  S
C11          C12   1.428       .  A
C11        C1044   1.540       .  S
C12        C1039   1.468       .  S
C13          C14   1.417       .  A
C13          C18   1.428       .  A
C13        C1017   1.460       .  S
C14          C15   1.428       .  A
C14        C1047   1.540       .  S
C15          C16   1.443       .  A
C15        C1021   1.468       .  S
C16          C17   1.431       .  A
C16        C1023   1.464       .  S
C17          C18   1.419       .  A
C17        C1029   1.549       .  S
C18        C1019   1.454       .  S
C19          C20   1.426       .  A
C19          C24   1.440       .  A
C19        C1015   1.468       .  S
C20          C21   1.423       .  A
C20        C1075   1.548       .  S
C21          C22   1.431       .  A
C21        C1010   1.465       .  S
C22          C23   1.421       .  A
C22        C1011   1.455       .  S
C23          C24   1.430       .  A
C23        C1026   1.549       .  S
C24        C1013   1.460       .  S
C25          C26   1.422       .  A
C25          C30   1.434       .  A
C25         C988   1.462       .  S
C26          C27   1.430       .  A
C26        C1000   1.545       .  S
C27          C28   1.440       .  A
C27         C984   1.466       .  S
C28          C29   1.423       .  A
C28         C981   1.458       .  S
C29          C30   1.422       .  A
C29         C990   1.555       .  S
C30         C986   1.456       .  S
C31          C32   1.421       .  A
C31          C36   1.433       .  A
C31         C969   1.461       .  S
C32          C33   1.429       .  A
C32        C1003   1.544       .  S
C33          C34   1.439       .  A
C33         C965   1.466       .  S
C34          C35   1.422       .  A
C34         C964   1.457       .  S
C35          C36   1.421       .  A
C35         C972   1.555       .  S
C36         C967   1.454       .  S
C37          C38   1.437       .  A
C37          C42   1.426       .  A
C37         C947   1.469       .  S
C38          C39   1.423       .  A
C38         C946   1.456       .  S
C39          C40   1.423       .  A
C39         C993   1.555       .  S
C40          C41   1.438       .  A
C40         C949   1.456       .  S
C41          C42   1.427       .  A
C41         C951   1.468       .  S
C42         C954   1.547       .  S
C43          C44   1.422       .  A
C43          C48   1.437       .  A
C43         C942   1.455       .  S
C44          C45   1.422       .  A
C44         C975   1.554       .  S
C45          C46   1.435       .  A
C45         C937   1.454       .  S
C46          C47   1.425       .  A
C46         C940   1.467       .  S
C47          C48   1.426       .  A
C47         C957   1.547       .  S
C48         C944   1.467       .  S
C49          C50   1.419       .  A
C49          C54   1.435       .  A
C49         C913   1.454       .  S
C50          C51   1.424       .  A
C50         C928   1.545       .  S
C51          C52   1.434       .  A
C51         C909   1.455       .  S
C52          C53   1.417       .  A
C52         C911   1.457       .  S
C53          C54   1.422       .  A
C53         C918   1.541       .  S
C54         C916   1.459       .  S
C55          C56   1.418       .  A
C55          C60   1.436       .  A
C55         C893   1.459       .  S
C56          C57   1.423       .  A
C56         C921   1.541       .  S
C57          C58   1.436       .  A
C57         C898   1.460       .  S
C58          C59   1.420       .  A
C58         C895   1.456       .  S
C59          C60   1.426       .  A
C59         C900   1.547       .  S
C60         C892   1.458       .  S
C61          C62   1.419       .  A
C61          C66   1.431       .  A
C61         C878   1.455       .  S
C62          C63   1.427       .  A
C62         C903   1.547       .  S
C63          C64   1.441       .  A
C63         C874   1.459       .  S
C64          C65   1.424       .  A
C64         C876   1.462       .  S
C65          C66   1.417       .  A
C65         C882   1.540       .  S
C66         C880   1.458       .  S
C67          C68   1.426       .  A
C67          C72   1.439       .  A
C67         C865   1.458       .  S
C68          C69   1.418       .  A
C68         C931   1.544       .  S
C69          C70   1.429       .  A
C69         C869   1.452       .  S
C70          C71   1.415       .  A
C70         C871   1.457       .  S
C71          C72   1.423       .  A
C71         C885   1.539       .  S
C72         C868   1.459       .  S
O73         Zr85   2.518       .  S
O73          C75   1.297       .  A
O74        Zr111   2.366       .  S
O74          C75   1.266       .  A
C75        C1055   1.443       .  S
O76         Zr88   2.444       .  S
O76          C78   1.287       .  A
O77        Zr112   2.354       .  S
O77          C78   1.269       .  A
C78         C857   1.402       .  S
O79         Zr88   2.435       .  S
O79          C81   1.286       .  A
O80        Zr111   2.369       .  S
O80          C81   1.272       .  A
C81         C863   1.403       .  S
O82         Zr85   2.512       .  S
O82          C84   1.298       .  A
O83        Zr112   2.366       .  S
O83          C84   1.271       .  A
C84         C941   1.441       .  S
Zr85         O86   2.433       .  S
Zr85         O87   2.435       .  S
Zr85         O91   2.369       .  S
Zr85         O92   2.380       .  S
Zr85        O115   2.409       .  S
Zr85        O117   2.405       .  S
O86         H129   0.990       .  S
O87         H128   0.989       .  S
O87         H132   0.990       .  S
Zr88         O89   2.436       .  S
Zr88         O90   2.434       .  S
Zr88         O92   2.357       .  S
Zr88         O91   2.363       .  S
Zr88        O116   2.358       .  S
Zr88        O118   2.354       .  S
O89         H130   0.990       .  S
O89         H133   0.990       .  S
O90         H123   0.990       .  S
O91        Zr111   2.370       .  S
O92        Zr112   2.372       .  S
O92         H119   0.965       .  S
O93        Zr105   2.513       .  S
O93          C95   1.297       .  A
O94        Zr112   2.362   1_545  S
O94          C95   1.270       .  A
C95         C968   1.439       .  S
O96        Zr108   2.433       .  S
O96          C98   1.286       .  A
O97        Zr111   2.371   1_545  S
O97          C98   1.273       .  A
C98         C862   1.404       .  S
O99        Zr108   2.440       .  S
O99         C101   1.286       .  A
O100       Zr112   2.357   1_545  S
O100        C101   1.269       .  A
C101        C859   1.401       .  S
O102       Zr105   2.517       .  S
O102        C104   1.297       .  A
O103       Zr111   2.365   1_545  S
O103        C104   1.266       .  A
C104       C1035   1.442       .  S
Zr105       O106   2.437       .  S
Zr105       O107   2.433       .  S
Zr105       O113   2.380       .  S
Zr105       O114   2.369       .  S
Zr105       O117   2.403   1_545  S
Zr105       O115   2.409   1_545  S
O106        H126   0.990       .  S
O106        H131   0.990       .  S
O107        H127   0.990       .  S
Zr108       O109   2.435       .  S
Zr108       O110   2.436       .  S
Zr108       O114   2.362       .  S
Zr108       O113   2.359       .  S
Zr108       O118   2.354   1_545  S
Zr108       O116   2.358   1_545  S
O109        H125   0.990       .  S
O110        H124   0.990       .  S
O110        H134   0.990       .  S
Zr111       O114   2.369   1_565  S
Zr111       O116   2.381       .  S
Zr111       O117   2.376       .  S
Zr112       O113   2.373   1_565  S
Zr112       O115   2.364       .  S
Zr112       O118   2.369       .  S
O113        H121   0.965       .  S
O116        H120   0.965       .  S
O117        H122   0.966       .  S
O135       Zr147   2.527       .  S
O135        C137   1.299       .  A
O136       Zr173   2.364       .  S
O136        C137   1.265       .  A
C137       C1037   1.447       .  S
O138       Zr150   2.433       .  S
O138        C140   1.284       .  A
O139       Zr174   2.372       .  S
O139        C140   1.273       .  A
C140        C853   1.404       .  S
O141       Zr150   2.424       .  S
O141        C143   1.283       .  A
O142       Zr173   2.376       .  S
O142        C143   1.273       .  A
C143        C861   1.403       .  S
O144       Zr147   2.517       .  S
O144        C146   1.300       .  A
O145       Zr174   2.364       .  S
O145        C146   1.271       .  A
C146        C914   1.442       .  S
Zr147       O148   2.433       .  S
Zr147       O149   2.436       .  S
Zr147       O153   2.369       .  S
Zr147       O154   2.382       .  S
Zr147       O177   2.406       .  S
Zr147       O179   2.403       .  S
O148        H191   0.990       .  S
O149        H190   0.989       .  S
O149        H194   0.990       .  S
Zr150       O151   2.435       .  S
Zr150       O152   2.434       .  S
Zr150       O154   2.361       .  S
Zr150       O153   2.357       .  S
Zr150       O178   2.364       .  S
Zr150       O180   2.348       .  S
O151        H192   0.990       .  S
O151        H195   0.990       .  S
O152        H185   0.990       .  S
O153       Zr173   2.372       .  S
O154       Zr174   2.375       .  S
O154        H181   0.965       .  S
O155       Zr167   2.514       .  S
O155        C157   1.299       .  A
O156       Zr174   2.363   1_655  S
O156        C157   1.271       .  A
C157        C870   1.439       .  S
O158       Zr170   2.428       .  S
O158        C160   1.284       .  A
O159       Zr173   2.375   1_655  S
O159        C160   1.273       .  A
C160        C855   1.404       .  S
O161       Zr170   2.437       .  S
O161        C163   1.284       .  A
O162       Zr174   2.369   1_655  S
O162        C163   1.272       .  A
C163        C852   1.404       .  S
O164       Zr167   2.527       .  S
O164        C166   1.300       .  A
O165       Zr173   2.364   1_655  S
O165        C166   1.266       .  A
C166       C1018   1.447       .  S
Zr167       O168   2.437       .  S
Zr167       O169   2.434       .  S
Zr167       O175   2.383       .  S
Zr167       O176   2.367       .  S
Zr167       O179   2.399   1_655  S
Zr167       O177   2.407   1_655  S
O168        H188   0.990       .  S
O168        H193   0.990       .  S
O169        H189   0.990       .  S
Zr170       O171   2.436       .  S
Zr170       O172   2.437       .  S
Zr170       O176   2.358       .  S
Zr170       O175   2.364       .  S
Zr170       O180   2.348   1_655  S
Zr170       O178   2.365   1_655  S
O171        H187   0.990       .  S
O172        H186   0.990       .  S
O172        H196   0.990       .  S
Zr173       O176   2.370   1_455  S
Zr173       O178   2.380       .  S
Zr173       O179   2.380       .  S
Zr174       O175   2.378   1_455  S
Zr174       O177   2.372       .  S
Zr174       O180   2.362       .  S
O175        H183   0.965       .  S
O178        H182   0.965       .  S
O179        H184   0.966       .  S
O197       Zr209   2.538       .  S
O197        C199   1.302       .  A
O198       Zr235   2.368       .  S
O198        C199   1.267       .  A
C199       C1057   1.455       .  S
O200       Zr212   2.429       .  S
O200        C202   1.283       .  A
O201       Zr236   2.376       .  S
O201        C202   1.273       .  A
C202        C850   1.404       .  S
O203       Zr212   2.419       .  S
O203        C205   1.282       .  A
O204       Zr235   2.375       .  S
O204        C205   1.273       .  A
C205        C845   1.399       .  S
O206       Zr209   2.521       .  S
O206        C208   1.300       .  A
O207       Zr236   2.366       .  S
O207        C208   1.272       .  A
C208        C891   1.445       .  S
Zr209       O210   2.433       .  S
Zr209       O211   2.436       .  S
Zr209       O215   2.365       .  S
Zr209       O216   2.383       .  S
Zr209       O239   2.410       .  S
Zr209       O241   2.405       .  S
O210        H253   0.990       .  S
O211        H252   0.989       .  S
O211        H256   0.990       .  S
Zr212       O213   2.435       .  S
Zr212       O214   2.434       .  S
Zr212       O216   2.359       .  S
Zr212       O215   2.357       .  S
Zr212       O240   2.362       .  S
Zr212       O242   2.348       .  S
O213        H254   0.990       .  S
O213        H257   0.990       .  S
O214        H247   0.990       .  S
O215       Zr235   2.372       .  S
O216       Zr236   2.377       .  S
O216        H243   0.965       .  S
O217       Zr229   2.525       .  S
O217        C219   1.301       .  A
O218       Zr236   2.367   1_655  S
O218        C219   1.272       .  A
C219        C873   1.446       .  S
O220       Zr232   2.419       .  S
O220        C222   1.282       .  A
O221       Zr235   2.376   1_655  S
O221        C222   1.273       .  A
C222        C843   1.400       .  S
O223       Zr232   2.433       .  S
O223        C225   1.284       .  A
O224       Zr236   2.372   1_655  S
O224        C225   1.273       .  A
C225        C848   1.404       .  S
O226       Zr229   2.536       .  S
O226        C228   1.302       .  A
O227       Zr235   2.367   1_655  S
O227        C228   1.267       .  A
C228       C1016   1.454       .  S
Zr229       O230   2.437       .  S
Zr229       O231   2.434       .  S
Zr229       O237   2.383       .  S
Zr229       O238   2.367       .  S
Zr229       O241   2.403   1_655  S
Zr229       O239   2.409   1_655  S
O230        H250   0.990       .  S
O230        H255   0.990       .  S
O231        H251   0.990       .  S
Zr232       O233   2.435       .  S
Zr232       O234   2.437       .  S
Zr232       O238   2.359       .  S
Zr232       O237   2.359       .  S
Zr232       O242   2.347   1_655  S
Zr232       O240   2.363   1_655  S
O233        H249   0.990       .  S
O234        H248   0.990       .  S
O234        H258   0.990       .  S
Zr235       O238   2.371   1_455  S
Zr235       O240   2.381       .  S
Zr235       O241   2.380       .  S
Zr236       O237   2.378   1_455  S
Zr236       O239   2.375       .  S
Zr236       O242   2.361       .  S
O237        H245   0.965       .  S
O240        H244   0.965       .  S
O241        H246   0.966       .  S
O259       Zr271   2.413       .  S
O259        C261   1.279       .  A
O260       Zr297   2.380   1_554  S
O260        C261   1.274       .  A
C261        C840   1.398       .  S
O262       Zr274   2.532       .  S
O262        C264   1.303       .  A
O263       Zr298   2.364   1_554  S
O263        C264   1.272       .  A
C264        C894   1.446       .  S
O265       Zr274   2.537       .  S
O265        C267   1.304       .  A
O266       Zr297   2.363   1_554  S
O266        C267   1.269       .  A
C267        C952   1.453       .  S
O268       Zr271   2.418       .  S
O268        C270   1.281       .  A
O269       Zr298   2.383   1_554  S
O269        C270   1.275       .  A
C270        C849   1.403       .  S
Zr271       O272   2.436       .  S
Zr271       O273   2.439       .  S
Zr271       O277   2.357       .  S
Zr271       O278   2.353       .  S
Zr271       O301   2.353   1_554  S
Zr271       O303   2.361   1_554  S
O272        H315   0.990       .  S
O273        H314   0.990       .  S
O273        H318   0.990       .  S
Zr274       O275   2.437       .  S
Zr274       O276   2.435       .  S
Zr274       O278   2.386       .  S
Zr274       O277   2.374       .  S
Zr274       O302   2.401   1_554  S
Zr274       O304   2.402   1_554  S
O275        H316   0.990       .  S
O275        H319   0.990       .  S
O276        H309   0.990       .  S
O277       Zr297   2.373   1_554  S
O278       Zr298   2.379   1_554  S
O278        H305   0.965       .  S
O279       Zr291   2.413       .  S
O279        C281   1.279       .  A
O280       Zr298   2.387       .  S
O280        C281   1.276       .  A
C281        C841   1.402       .  S
O282       Zr294   2.534       .  S
O282        C284   1.303       .  A
O283       Zr297   2.360       .  S
O283        C284   1.269       .  A
C284        C943   1.451       .  S
O285       Zr294   2.524       .  S
O285        C287   1.302       .  A
O286       Zr298   2.364       .  S
O286        C287   1.272       .  A
C287        C912   1.444       .  S
O288       Zr291   2.405       .  S
O288        C290   1.279       .  A
O289       Zr297   2.389       .  S
O289        C290   1.275       .  A
C290        C858   1.399       .  S
Zr291       O292   2.435       .  S
Zr291       O293   2.435       .  S
Zr291       O299   2.352       .  S
Zr291       O300   2.359       .  S
Zr291       O303   2.359       .  S
Zr291       O301   2.352       .  S
O292        H312   0.990       .  S
O292        H317   0.990       .  S
O293        H313   0.990       .  S
Zr294       O295   2.434       .  S
Zr294       O296   2.434       .  S
Zr294       O300   2.374       .  S
Zr294       O299   2.385       .  S
Zr294       O304   2.402       .  S
Zr294       O302   2.399       .  S
O295        H311   0.990       .  S
O296        H310   0.990       .  S
O296        H320   0.990       .  S
Zr297       O300   2.371       .  S
Zr297       O302   2.383       .  S
Zr297       O303   2.374       .  S
Zr298       O299   2.377       .  S
Zr298       O301   2.355       .  S
Zr298       O304   2.378       .  S
O299        H307   0.965       .  S
O302        H306   0.966       .  S
O303        H308   0.964       .  S
O321       Zr333   2.426       .  S
O321        C323   1.283       .  A
O322       Zr359   2.368       .  S
O322        C323   1.271       .  A
C323        C838   1.399       .  S
O324       Zr336   2.524       .  S
O324        C326   1.301       .  A
O325       Zr360   2.364       .  S
O325        C326   1.271       .  A
C326        C896   1.444       .  S
O327       Zr336   2.537       .  S
O327        C329   1.301       .  A
O328       Zr359   2.359       .  S
O328        C329   1.265       .  A
C329       C1040   1.454       .  S
O330       Zr333   2.430       .  S
O330        C332   1.283       .  A
O331       Zr360   2.372       .  S
O331        C332   1.273       .  A
C332        C831   1.403       .  S
Zr333       O334   2.435       .  S
Zr333       O335   2.438       .  S
Zr333       O339   2.357       .  S
Zr333       O340   2.361       .  S
Zr333       O363   2.349       .  S
Zr333       O365   2.364       .  S
O334        H377   0.990       .  S
O335        H376   0.990       .  S
O335        H380   0.990       .  S
Zr336       O337   2.437       .  S
Zr336       O338   2.435       .  S
Zr336       O340   2.385       .  S
Zr336       O339   2.369       .  S
Zr336       O364   2.402       .  S
Zr336       O366   2.407       .  S
O337        H378   0.990       .  S
O337        H381   0.990       .  S
O338        H371   0.990       .  S
O339       Zr359   2.369       .  S
O340       Zr360   2.377       .  S
O340        H367   0.965       .  S
O341       Zr353   2.431       .  S
O341        C343   1.283       .  A
O342       Zr360   2.372   1_655  S
O342        C343   1.273       .  A
C343        C834   1.403       .  S
O344       Zr356   2.537       .  S
O344        C346   1.302       .  A
O345       Zr359   2.357   1_655  S
O345        C346   1.266       .  A
C346       C1022   1.454       .  S
O347       Zr356   2.518       .  S
O347        C349   1.300       .  A
O348       Zr360   2.364   1_655  S
O348        C349   1.272       .  A
C349        C877   1.442       .  S
O350       Zr353   2.427       .  S
O350        C352   1.284       .  A
O351       Zr359   2.369   1_655  S
O351        C352   1.272       .  A
C352        C836   1.400       .  S
Zr353       O354   2.435       .  S
Zr353       O355   2.434       .  S
Zr353       O361   2.362       .  S
Zr353       O362   2.358       .  S
Zr353       O365   2.363   1_655  S
Zr353       O363   2.349   1_655  S
O354        H374   0.990       .  S
O354        H379   0.990       .  S
O355        H375   0.990       .  S
Zr356       O357   2.435       .  S
Zr356       O358   2.435       .  S
Zr356       O362   2.368       .  S
Zr356       O361   2.384       .  S
Zr356       O366   2.408   1_655  S
Zr356       O364   2.399   1_655  S
O357        H373   0.990       .  S
O358        H372   0.990       .  S
O358        H382   0.990       .  S
Zr359       O362   2.368   1_455  S
Zr359       O364   2.375       .  S
Zr359       O365   2.377       .  S
Zr360       O361   2.376   1_455  S
Zr360       O363   2.359       .  S
Zr360       O366   2.370       .  S
O361        H369   0.965       .  S
O364        H368   0.966       .  S
O365        H370   0.965       .  S
O383       Zr395   2.439       .  S
O383        C385   1.286       .  A
O384       Zr421   2.360       .  S
O384        C385   1.270       .  A
C385        C846   1.401       .  S
O386       Zr398   2.516       .  S
O386        C388   1.298       .  A
O387       Zr422   2.367       .  S
O387        C388   1.271       .  A
C388        C950   1.443       .  S
O389       Zr398   2.521       .  S
O389        C391   1.297       .  A
O390       Zr421   2.361       .  S
O390        C391   1.265       .  A
C391       C1060   1.448       .  S
O392       Zr395   2.441       .  S
O392        C394   1.287       .  A
O393       Zr422   2.353       .  S
O393        C394   1.269       .  A
C394        C839   1.400       .  S
Zr395       O396   2.435       .  S
Zr395       O397   2.437       .  S
Zr395       O401   2.363       .  S
Zr395       O402   2.358       .  S
Zr395       O425   2.355       .  S
Zr395       O427   2.355       .  S
O396        H439   0.990       .  S
O397        H438   0.990       .  S
O397        H442   0.990       .  S
Zr398       O399   2.437       .  S
Zr398       O400   2.434       .  S
Zr398       O402   2.381       .  S
Zr398       O401   2.370       .  S
Zr398       O426   2.405       .  S
Zr398       O428   2.409       .  S
O399        H440   0.990       .  S
O399        H443   0.990       .  S
O400        H433   0.990       .  S
O401       Zr421   2.366       .  S
O402       Zr422   2.372       .  S
O402        H429   0.965       .  S
O403       Zr415   2.436       .  S
O403        C405   1.286       .  A
O404       Zr422   2.359   1_545  S
O404        C405   1.270       .  A
C405        C829   1.401       .  S
O406       Zr418   2.528       .  S
O406        C408   1.300       .  A
O407       Zr421   2.356   1_545  S
O407        C408   1.265       .  A
C408       C1042   1.450       .  S
O409       Zr418   2.515       .  S
O409        C411   1.299       .  A
O410       Zr422   2.362   1_545  S
O410        C411   1.270       .  A
C411        C985   1.441       .  S
O412       Zr415   2.431       .  S
O412        C414   1.285       .  A
O413       Zr421   2.365   1_545  S
O413        C414   1.271       .  A
C414        C837   1.400       .  S
Zr415       O416   2.436       .  S
Zr415       O417   2.434       .  S
Zr415       O423   2.358       .  S
Zr415       O424   2.363       .  S
Zr415       O427   2.357   1_545  S
Zr415       O425   2.354   1_545  S
O416        H436   0.990       .  S
O416        H441   0.990       .  S
O417        H437   0.990       .  S
Zr418       O419   2.435       .  S
Zr418       O420   2.437       .  S
Zr418       O424   2.368       .  S
Zr418       O423   2.381       .  S
Zr418       O428   2.411   1_545  S
Zr418       O426   2.402   1_545  S
O419        H435   0.990       .  S
O420        H434   0.990       .  S
O420        H444   0.990       .  S
Zr421       O424   2.366   1_565  S
Zr421       O426   2.370       .  S
Zr421       O427   2.377       .  S
Zr422       O423   2.372   1_565  S
Zr422       O425   2.367       .  S
Zr422       O428   2.361       .  S
O423        H431   0.965       .  S
O426        H430   0.966       .  S
O427        H432   0.965       .  S
O445       Zr457   2.532       .  S
O445        C447   1.303       .  A
O446       Zr483   2.357   1_554  S
O446        C447   1.268       .  A
C447        C987   1.448       .  S
O448       Zr460   2.418       .  S
O448        C450   1.281       .  A
O449       Zr484   2.381   1_554  S
O449        C450   1.275       .  A
C450        C832   1.401       .  S
O451       Zr460   2.413       .  S
O451        C453   1.280       .  A
O452       Zr483   2.383   1_554  S
O452        C453   1.274       .  A
C453        C830   1.399       .  S
O454       Zr457   2.527       .  S
O454        C456   1.302       .  A
O455       Zr484   2.367   1_554  S
O455        C456   1.273       .  A
C456        C897   1.447       .  S
Zr457       O458   2.433       .  S
Zr457       O459   2.436       .  S
Zr457       O463   2.375       .  S
Zr457       O464   2.384       .  S
Zr457       O487   2.404   1_554  S
Zr457       O489   2.402   1_554  S
O458        H501   0.990       .  S
O459        H500   0.990       .  S
O459        H504   0.990       .  S
Zr460       O461   2.436       .  S
Zr460       O462   2.435       .  S
Zr460       O464   2.351       .  S
Zr460       O463   2.359       .  S
Zr460       O488   2.358   1_554  S
Zr460       O490   2.354   1_554  S
O461        H502   0.990       .  S
O461        H505   0.990       .  S
O462        H495   0.990       .  S
O463       Zr483   2.372   1_554  S
O464       Zr484   2.378   1_554  S
O464        H491   0.965       .  S
O465       Zr477   2.527       .  S
O465        C467   1.302       .  A
O466       Zr484   2.363       .  S
O466        C467   1.272       .  A
C467        C915   1.445       .  S
O468       Zr480   2.411       .  S
O468        C470   1.280       .  A
O469       Zr483   2.384       .  S
O469        C470   1.274       .  A
C470        C860   1.399       .  S
O471       Zr480   2.417       .  S
O471        C473   1.280       .  A
O472       Zr484   2.385       .  S
O472        C473   1.275       .  A
C473        C854   1.402       .  S
O474       Zr477   2.531       .  S
O474        C476   1.302       .  A
O475       Zr483   2.356       .  S
O475        C476   1.268       .  A
C476        C970   1.447       .  S
Zr477       O478   2.437       .  S
Zr477       O479   2.434       .  S
Zr477       O485   2.384       .  S
Zr477       O486   2.375       .  S
Zr477       O489   2.400       .  S
Zr477       O487   2.404       .  S
O478        H498   0.990       .  S
O478        H503   0.990       .  S
O479        H499   0.990       .  S
Zr480       O481   2.436       .  S
Zr480       O482   2.438       .  S
Zr480       O486   2.359       .  S
Zr480       O485   2.353       .  S
Zr480       O490   2.354       .  S
Zr480       O488   2.358       .  S
O481        H497   0.990       .  S
O482        H496   0.990       .  S
O482        H506   0.990       .  S
Zr483       O486   2.371       .  S
Zr483       O488   2.370       .  S
Zr483       O489   2.384       .  S
Zr484       O485   2.379       .  S
Zr484       O487   2.380       .  S
Zr484       O490   2.358       .  S
O485        H493   0.965       .  S
O488        H492   0.964       .  S
O489        H494   0.966       .  S
O507       Zr519   2.431       .  S
O507        C509   1.284       .  A
O508       Zr545   2.368   1_545  S
O508        C509   1.272       .  A
C509        C835   1.401       .  S
O510       Zr522   2.521       .  S
O510        C512   1.299       .  A
O511       Zr546   2.365   1_545  S
O511        C512   1.271       .  A
C512        C982   1.444       .  S
O513       Zr522   2.528       .  S
O513        C515   1.299       .  A
O514       Zr545   2.357   1_545  S
O514        C515   1.265       .  A
C515       C1024   1.450       .  S
O516       Zr519   2.434       .  S
O516        C518   1.285       .  A
O517       Zr546   2.356   1_545  S
O517        C518   1.269       .  A
C518        C825   1.398       .  S
Zr519       O520   2.435       .  S
Zr519       O521   2.437       .  S
Zr519       O525   2.361       .  S
Zr519       O526   2.358       .  S
Zr519       O549   2.352   1_545  S
Zr519       O551   2.359   1_545  S
O520        H563   0.990       .  S
O521        H562   0.990       .  S
O521        H566   0.990       .  S
Zr522       O523   2.437       .  S
Zr522       O524   2.435       .  S
Zr522       O526   2.382       .  S
Zr522       O525   2.370       .  S
Zr522       O550   2.403   1_545  S
Zr522       O552   2.410   1_545  S
O523        H564   0.990       .  S
O523        H567   0.990       .  S
O524        H557   0.990       .  S
O525       Zr545   2.367   1_545  S
O526       Zr546   2.373   1_545  S
O526        H553   0.965       .  S
O527       Zr539   2.438       .  S
O527        C529   1.286       .  A
O528       Zr546   2.355       .  S
O528        C529   1.269       .  A
C529        C828   1.399       .  S
O530       Zr542   2.520       .  S
O530        C532   1.297       .  A
O531       Zr545   2.360       .  S
O531        C532   1.265       .  A
C532       C1014   1.447       .  S
O533       Zr542   2.514       .  S
O533        C535   1.298       .  A
O534       Zr546   2.365       .  S
O534        C535   1.271       .  A
C535        C945   1.441       .  S
O536       Zr539   2.437       .  S
O536        C538   1.286       .  A
O537       Zr545   2.363       .  S
O537        C538   1.271       .  A
C538        C844   1.402       .  S
Zr539       O540   2.435       .  S
Zr539       O541   2.434       .  S
Zr539       O547   2.359       .  S
Zr539       O548   2.361       .  S
Zr539       O551   2.356       .  S
Zr539       O549   2.353       .  S
O540        H560   0.990       .  S
O540        H565   0.990       .  S
O541        H561   0.990       .  S
Zr542       O543   2.434       .  S
Zr542       O544   2.434       .  S
Zr542       O548   2.371       .  S
Zr542       O547   2.380       .  S
Zr542       O552   2.408       .  S
Zr542       O550   2.403       .  S
O543        H559   0.990       .  S
O544        H558   0.990       .  S
O544        H568   0.990       .  S
Zr545       O548   2.367       .  S
Zr545       O550   2.372       .  S
Zr545       O551   2.377       .  S
Zr546       O547   2.372       .  S
Zr546       O549   2.367       .  S
Zr546       O552   2.361       .  S
O547        H555   0.965       .  S
O550        H554   0.966       .  S
O551        H556   0.965       .  S
O569       Zr581   2.419       .  S
O569        C571   1.280       .  A
O570       Zr607   2.375   1_554  S
O570        C571   1.272       .  A
C571        C826   1.397       .  S
O572       Zr584   2.529       .  S
O572        C574   1.302       .  A
O573       Zr608   2.364   1_554  S
O573        C574   1.272       .  A
C574        C879   1.445       .  S
O575       Zr584   2.531       .  S
O575        C577   1.303       .  A
O576       Zr607   2.356   1_554  S
O576        C577   1.270       .  A
C577        C983   1.451       .  S
O578       Zr581   2.418       .  S
O578        C580   1.280       .  A
O579       Zr608   2.383   1_554  S
O579        C580   1.275       .  A
C580        C833   1.401       .  S
Zr581       O582   2.436       .  S
Zr581       O583   2.439       .  S
Zr581       O587   2.357       .  S
Zr581       O588   2.354       .  S
Zr581       O611   2.354   1_554  S
Zr581       O613   2.360   1_554  S
O582        H625   0.990       .  S
O583        H624   0.990       .  S
O583        H628   0.990       .  S
Zr584       O585   2.437       .  S
Zr584       O586   2.434       .  S
Zr584       O588   2.387       .  S
Zr584       O587   2.376       .  S
Zr584       O612   2.401   1_554  S
Zr584       O614   2.399   1_554  S
O585        H626   0.990       .  S
O585        H629   0.990       .  S
O586        H619   0.990       .  S
O587       Zr607   2.370   1_554  S
O588       Zr608   2.379   1_554  S
O588        H615   0.965       .  S
O589       Zr601   2.413       .  S
O589        C591   1.279       .  A
O590       Zr608   2.388       .  S
O590        C591   1.276       .  A
C591        C851   1.401       .  S
O592       Zr604   2.531       .  S
O592        C594   1.303       .  A
O593       Zr607   2.354       .  S
O593        C594   1.269       .  A
C594        C966   1.450       .  S
O595       Zr604   2.523       .  S
O595        C597   1.302       .  A
O596       Zr608   2.363       .  S
O596        C597   1.272       .  A
C597        C872   1.443       .  S
O598       Zr601   2.412       .  S
O598        C600   1.280       .  A
O599       Zr607   2.381       .  S
O599        C600   1.273       .  A
C600        C823   1.398       .  S
Zr601       O602   2.436       .  S
Zr601       O603   2.435       .  S
Zr601       O609   2.354       .  S
Zr601       O610   2.359       .  S
Zr601       O613   2.358       .  S
Zr601       O611   2.353       .  S
O602        H622   0.990       .  S
O602        H627   0.990       .  S
O603        H623   0.990       .  S
Zr604       O605   2.434       .  S
Zr604       O606   2.434       .  S
Zr604       O610   2.376       .  S
Zr604       O609   2.386       .  S
Zr604       O614   2.400       .  S
Zr604       O612   2.399       .  S
O605        H621   0.990       .  S
O606        H620   0.990       .  S
O606        H630   0.990       .  S
Zr607       O610   2.369       .  S
Zr607       O612   2.382       .  S
Zr607       O613   2.369       .  S
Zr608       O609   2.378       .  S
Zr608       O611   2.353       .  S
Zr608       O614   2.378       .  S
O609        H617   0.965       .  S
O612        H616   0.966       .  S
O613        H618   0.963       .  S
O631       Zr643   2.426       .  S
O631        C633   1.283       .  A
O632       Zr669   2.375       .  S
O632        C633   1.273       .  A
C633        C864   1.402       .  S
O634       Zr646   2.518       .  S
O634        C636   1.299       .  A
O635       Zr670   2.366       .  S
O635        C636   1.272       .  A
C636        C910   1.442       .  S
O637       Zr646   2.532       .  S
O637        C639   1.301       .  A
O638       Zr669   2.368       .  S
O638        C639   1.267       .  A
C639       C1053   1.451       .  S
O640       Zr643   2.433       .  S
O640        C642   1.284       .  A
O641       Zr670   2.372       .  S
O641        C642   1.273       .  A
C642        C842   1.404       .  S
Zr643       O644   2.435       .  S
Zr643       O645   2.438       .  S
Zr643       O649   2.357       .  S
Zr643       O650   2.362       .  S
Zr643       O673   2.348       .  S
Zr643       O675   2.366       .  S
O644        H687   0.990       .  S
O645        H686   0.990       .  S
O645        H690   0.990       .  S
Zr646       O647   2.437       .  S
Zr646       O648   2.435       .  S
Zr646       O650   2.385       .  S
Zr646       O649   2.368       .  S
Zr646       O674   2.401       .  S
Zr646       O676   2.407       .  S
O647        H688   0.990       .  S
O647        H691   0.990       .  S
O648        H681   0.990       .  S
O649       Zr669   2.371       .  S
O650       Zr670   2.378       .  S
O650        H677   0.965       .  S
O651       Zr663   2.434       .  S
O651        C653   1.284       .  A
O652       Zr670   2.372   1_655  S
O652        C653   1.273       .  A
C653        C819   1.405       .  S
O654       Zr666   2.529       .  S
O654        C656   1.300       .  A
O655       Zr669   2.366   1_655  S
O655        C656   1.267       .  A
C656       C1009   1.449       .  S
O657       Zr666   2.518       .  S
O657        C659   1.300       .  A
O658       Zr670   2.369   1_655  S
O658        C659   1.273       .  A
C659        C866   1.445       .  S
O660       Zr663   2.425       .  S
O660        C662   1.284       .  A
O661       Zr669   2.377   1_655  S
O661        C662   1.274       .  A
C662        C822   1.403       .  S
Zr663       O664   2.435       .  S
Zr663       O665   2.434       .  S
Zr663       O671   2.361       .  S
Zr663       O672   2.359       .  S
Zr663       O675   2.364   1_655  S
Zr663       O673   2.348   1_655  S
O664        H684   0.990       .  S
O664        H689   0.990       .  S
O665        H685   0.990       .  S
Zr666       O667   2.435       .  S
Zr666       O668   2.436       .  S
Zr666       O672   2.370       .  S
Zr666       O671   2.382       .  S
Zr666       O676   2.406   1_655  S
Zr666       O674   2.400   1_655  S
O667        H683   0.990       .  S
O668        H682   0.990       .  S
O668        H692   0.990       .  S
Zr669       O672   2.371   1_455  S
Zr669       O674   2.378       .  S
Zr669       O675   2.382       .  S
Zr670       O671   2.375   1_455  S
Zr670       O673   2.360       .  S
Zr670       O676   2.371       .  S
O671        H679   0.965       .  S
O674        H678   0.966       .  S
O675        H680   0.965       .  S
O693       Zr705   2.516       .  S
O693        C695   1.297       .  A
O694       Zr731   2.366   1_545  S
O694        C695   1.266       .  A
C695       C1020   1.442       .  S
O696       Zr708   2.436       .  S
O696        C698   1.285       .  A
O697       Zr732   2.358   1_545  S
O697        C698   1.270       .  A
C698        C824   1.399       .  S
O699       Zr708   2.431       .  S
O699        C701   1.285       .  A
O700       Zr731   2.374   1_545  S
O700        C701   1.273       .  A
C701        C856   1.404       .  S
O702       Zr705   2.516       .  S
O702        C704   1.299       .  A
O703       Zr732   2.365   1_545  S
O703        C704   1.271       .  A
C704        C963   1.443       .  S
Zr705       O706   2.433       .  S
Zr705       O707   2.435       .  S
Zr705       O711   2.371       .  S
Zr705       O712   2.379       .  S
Zr705       O735   2.407   1_545  S
Zr705       O737   2.406   1_545  S
O706        H749   0.990       .  S
O707        H748   0.989       .  S
O707        H752   0.990       .  S
Zr708       O709   2.435       .  S
Zr708       O710   2.434       .  S
Zr708       O712   2.358       .  S
Zr708       O711   2.360       .  S
Zr708       O736   2.358   1_545  S
Zr708       O738   2.352   1_545  S
O709        H750   0.990       .  S
O709        H753   0.990       .  S
O710        H743   0.990       .  S
O711       Zr731   2.371   1_545  S
O712       Zr732   2.371   1_545  S
O712        H739   0.965       .  S
O713       Zr725   2.513       .  S
O713        C715   1.297       .  A
O714       Zr732   2.363       .  S
O714        C715   1.271       .  A
C715        C938   1.440       .  S
O716       Zr728   2.433       .  S
O716        C718   1.286       .  A
O717       Zr731   2.373       .  S
O717        C718   1.273       .  A
C718        C821   1.404       .  S
O719       Zr728   2.442       .  S
O719        C721   1.286       .  A
O720       Zr732   2.353       .  S
O720        C721   1.269       .  A
C721        C817   1.399       .  S
O722       Zr725   2.518       .  S
O722        C724   1.297       .  A
O723       Zr731   2.365       .  S
O723        C724   1.266       .  A
C724       C1012   1.442       .  S
Zr725       O726   2.438       .  S
Zr725       O727   2.433       .  S
Zr725       O733   2.380       .  S
Zr725       O734   2.369       .  S
Zr725       O737   2.402       .  S
Zr725       O735   2.409       .  S
O726        H746   0.990       .  S
O726        H751   0.990       .  S
O727        H747   0.990       .  S
Zr728       O729   2.435       .  S
Zr728       O730   2.437       .  S
Zr728       O734   2.361       .  S
Zr728       O733   2.359       .  S
Zr728       O738   2.351       .  S
Zr728       O736   2.360       .  S
O729        H745   0.990       .  S
O730        H744   0.990       .  S
O730        H754   0.990       .  S
Zr731       O734   2.370       .  S
Zr731       O736   2.381       .  S
Zr731       O737   2.378       .  S
Zr732       O733   2.374       .  S
Zr732       O735   2.364       .  S
Zr732       O738   2.368       .  S
O733        H741   0.965       .  S
O736        H740   0.965       .  S
O737        H742   0.966       .  S
O755       Zr767   2.536       .  S
O755        C757   1.304       .  A
O756       Zr793   2.360   1_554  S
O756        C757   1.270       .  A
C757        C948   1.453       .  S
O758       Zr770   2.416       .  S
O758        C760   1.280       .  A
O759       Zr794   2.385   1_554  S
O759        C760   1.275       .  A
C760        C847   1.403       .  S
O761       Zr770   2.412       .  S
O761        C763   1.280       .  A
O762       Zr793   2.381   1_554  S
O762        C763   1.274       .  A
C763        C827   1.397       .  S
O764       Zr767   2.530       .  S
O764        C766   1.303       .  A
O765       Zr794   2.366   1_554  S
O765        C766   1.273       .  A
C766        C875   1.448       .  S
Zr767       O768   2.433       .  S
Zr767       O769   2.436       .  S
Zr767       O773   2.376       .  S
Zr767       O774   2.385       .  S
Zr767       O797   2.404   1_554  S
Zr767       O799   2.404   1_554  S
O768        H811   0.990       .  S
O769        H810   0.990       .  S
O769        H814   0.990       .  S
Zr770       O771   2.436       .  S
Zr770       O772   2.435       .  S
Zr770       O774   2.349       .  S
Zr770       O773   2.360       .  S
Zr770       O798   2.356   1_554  S
Zr770       O800   2.356   1_554  S
O771        H812   0.990       .  S
O771        H815   0.990       .  S
O772        H805   0.990       .  S
O773       Zr793   2.372   1_554  S
O774       Zr794   2.378   1_554  S
O774        H801   0.965       .  S
O775       Zr787   2.528       .  S
O775        C777   1.302       .  A
O776       Zr794   2.363       .  S
O776        C777   1.272       .  A
C777        C867   1.445       .  S
O778       Zr790   2.409       .  S
O778        C780   1.279       .  A
O779       Zr793   2.384       .  S
O779        C780   1.274       .  A
C780        C818   1.397       .  S
O781       Zr790   2.417       .  S
O781        C783   1.279       .  A
O782       Zr794   2.387       .  S
O782        C783   1.275       .  A
C783        C820   1.403       .  S
O784       Zr787   2.532       .  S
O784        C786   1.303       .  A
O785       Zr793   2.358       .  S
O785        C786   1.270       .  A
C786        C939   1.451       .  S
Zr787       O788   2.437       .  S
Zr787       O789   2.434       .  S
Zr787       O795   2.386       .  S
Zr787       O796   2.376       .  S
Zr787       O799   2.401       .  S
Zr787       O797   2.404       .  S
O788        H808   0.990       .  S
O788        H813   0.990       .  S
O789        H809   0.990       .  S
Zr790       O791   2.436       .  S
Zr790       O792   2.439       .  S
Zr790       O796   2.361       .  S
Zr790       O795   2.350       .  S
Zr790       O800   2.356       .  S
Zr790       O798   2.357       .  S
O791        H807   0.990       .  S
O792        H806   0.990       .  S
O792        H816   0.990       .  S
Zr793       O796   2.371       .  S
Zr793       O798   2.370       .  S
Zr793       O799   2.384       .  S
Zr794       O795   2.379       .  S
Zr794       O797   2.382       .  S
Zr794       O800   2.358       .  S
O795        H803   0.965       .  S
O798        H802   0.963       .  S
O799        H804   0.966       .  S
C817        C818   1.183       .  T
C819        C820   1.186       .  T
C821        C822   1.186       .  T
C823        C824   1.183       .  T
C825        C826   1.182       .  T
C827        C828   1.182       .  T
C829        C830   1.184       .  T
C831        C832   1.185       .  T
C833        C834   1.185       .  T
C835        C836   1.184       .  T
C837        C838   1.184       .  T
C839        C840   1.184       .  T
C841        C842   1.186       .  T
C843        C844   1.185       .  T
C845        C846   1.184       .  T
C847        C848   1.186       .  T
C849        C850   1.185       .  T
C851        C852   1.185       .  T
C853        C854   1.185       .  T
C855        C856   1.186       .  T
C857        C858   1.185       .  T
C859        C860   1.184       .  T
C861        C862   1.186       .  T
C863        C864   1.186       .  T
C865        C866   1.215       .  T
C867        C868   1.216       .  T
C869        C870   1.212       .  T
C871        C872   1.215       .  T
C873        C874   1.216       .  T
C875        C876   1.218       .  T
C877        C878   1.214       .  T
C879        C880   1.216       .  T
C881        C882   1.415       .  A
C881        C886   1.421   1_554  A
C881        H887   1.076       .  S
C882        C883   1.414       .  A
C883        C884   1.415   1_554  A
C883        H888   1.083       .  S
C884        C885   1.414       .  A
C884        H889   1.083       .  S
C885        C886   1.415       .  A
C886        H890   1.076       .  S
C891        C892   1.216       .  T
C893        C894   1.216       .  T
C895        C896   1.215       .  T
C897        C898   1.217       .  T
C899        C900   1.416       .  A
C899        C904   1.423   1_455  A
C899        H905   1.075       .  S
C900        C901   1.416       .  A
C901        C902   1.419   1_455  A
C901        H906   1.083       .  S
C902        C903   1.415       .  A
C902        H907   1.083       .  S
C903        C904   1.415       .  A
C904        H908   1.075       .  S
C909        C910   1.214       .  T
C911        C912   1.215       .  T
C913        C914   1.213       .  T
C915        C916   1.216       .  T
C917        C918   1.415       .  A
C917        C922   1.421   1_556  A
C917        H923   1.076       .  S
C918        C919   1.414       .  A
C919        C920   1.415   1_556  A
C919        H924   1.083       .  S
C920        C921   1.414       .  A
C920        H925   1.083       .  S
C921        C922   1.415       .  A
C922        H926   1.075       .  S
C927        C928   1.415       .  A
C927        C932   1.418   1_455  A
C927        H933   1.083       .  S
C928        C929   1.416       .  A
C929        C930   1.422   1_455  A
C929        H934   1.075       .  S
C930        C931   1.415       .  A
C930        H935   1.075       .  S
C931        C932   1.415       .  A
C932        H936   1.083       .  S
C937        C938   1.213       .  T
C939        C940   1.220       .  T
C941        C942   1.214       .  T
C943        C944   1.220       .  T
C945        C946   1.214       .  T
C947        C948   1.221       .  T
C949        C950   1.215       .  T
C951        C952   1.221       .  T
C953        C954   1.417       .  A
C953        C958   1.418   1_554  A
C953        H959   1.079       .  S
C954        C955   1.416       .  A
C955        C956   1.416   1_554  A
C955        H960   1.078       .  S
C956        C957   1.416       .  A
C956        H961   1.078       .  S
C957        C958   1.417       .  A
C958        H962   1.079       .  S
C963        C964   1.215       .  T
C965        C966   1.220       .  T
C967        C968   1.213       .  T
C969        C970   1.217       .  T
C971        C972   1.418       .  A
C971        C976   1.422   1_545  A
C971        H977   1.080       .  S
C972        C973   1.418       .  A
C973        C974   1.422   1_545  A
C973        H978   1.080       .  S
C974        C975   1.418       .  A
C974        H979   1.080       .  S
C975        C976   1.418       .  A
C976        H980   1.080       .  S
C981        C982   1.215       .  T
C983        C984   1.220       .  T
C985        C986   1.214       .  T
C987        C988   1.218       .  T
C989        C990   1.418       .  A
C989        C994   1.423   1_545  A
C989        H995   1.080       .  S
C990        C991   1.419       .  A
C991        C992   1.422   1_545  A
C991        H996   1.080       .  S
C992        C993   1.418       .  A
C992        H997   1.080       .  S
C993        C994   1.419       .  A
C994        H998   1.080       .  S
C999       C1000   1.416       .  A
C999       C1004   1.419   1_554  A
C999       H1005   1.083       .  S
C1000      C1001   1.413       .  A
C1001      C1002   1.420   1_554  A
C1001      H1006   1.072       .  S
C1002      C1003   1.413       .  A
C1002      H1007   1.073       .  S
C1003      C1004   1.416       .  A
C1004      H1008   1.083       .  S
C1009      C1010   1.219       .  T
C1011      C1012   1.214       .  T
C1013      C1014   1.217       .  T
C1015      C1016   1.221       .  T
C1017      C1018   1.217       .  T
C1019      C1020   1.213       .  T
C1021      C1022   1.222       .  T
C1023      C1024   1.219       .  T
C1025      C1026   1.416       .  A
C1025      C1030   1.423   1_565  A
C1025      H1031   1.083       .  S
C1026      C1027   1.414       .  A
C1027      C1028   1.427   1_565  A
C1027      H1032   1.074       .  S
C1028      C1029   1.414       .  A
C1028      H1033   1.074       .  S
C1029      C1030   1.416       .  A
C1030      H1034   1.083       .  S
C1035      C1036   1.214       .  T
C1037      C1038   1.217       .  T
C1039      C1040   1.222       .  T
C1041      C1042   1.219       .  T
C1043      C1044   1.414       .  A
C1043      C1048   1.418   1_455  A
C1043      H1049   1.083       .  S
C1044      C1045   1.413       .  A
C1045      C1046   1.425   1_455  A
C1045      H1050   1.075       .  S
C1046      C1047   1.413       .  A
C1046      H1051   1.075       .  S
C1047      C1048   1.414       .  A
C1048      H1052   1.083       .  S
C1053      C1054   1.219       .  T
C1055      C1056   1.214       .  T
C1057      C1058   1.222       .  T
C1059      C1060   1.218       .  T
C1061      C1062   1.414       .  A
C1061      C1066   1.428   1_565  A
C1061      H1067   1.074       .  S
C1062      C1063   1.416       .  A
C1063      C1064   1.423   1_565  A
C1063      H1068   1.083       .  S
C1064      C1065   1.416       .  A
C1064      H1069   1.083       .  S
C1065      C1066   1.414       .  A
C1066      H1070   1.074       .  S
C1071      C1072   1.417       .  A
C1071      C1076   1.419   1_455  A
C1071      H1077   1.080       .  S
C1072      C1073   1.417       .  A
C1073      C1074   1.417   1_455  A
C1073      H1078   1.079       .  S
C1074      C1075   1.417       .  A
C1074      H1079   1.079       .  S
C1075      C1076   1.417       .  A
C1076      H1080   1.080       .  S
