geometry optimzed in LAMMPS
_audit_creation_date              2020-11-30 
_audit_creation_method            'lammps2cif' 
_symmetry_space_group_name_H-M    'P1' 
_symmetry_Int_Tables_number       1 
_symmetry_cell_setting            triclinic 
loop_ 
_symmetry_equiv_pos_as_xyz 
  x,y,z 
_cell_length_a                    39.82733573 
_cell_length_b                    39.81798305832671 
_cell_length_c                    23.97479301982439 
_cell_angle_alpha                 90.65080480618845 
_cell_angle_beta                  90.00685951712849 
_cell_angle_gamma                 89.98859878535234 
loop_ 
_atom_site_label 
_atom_site_type_symbol 
_atom_site_fract_x 
_atom_site_fract_y 
_atom_site_fract_z 
_atom_site_charge 
O1          O  0.26600934  0.18781628  0.32253919    -0.84600
O2          O  0.26538996  0.19084112  0.64023352    -0.84800
O3          O  0.31205837  0.15120577  0.48710140    -0.86500
O4          O  0.20485616  0.16243295  0.48876965    -0.85200
O5          O  0.16795375  0.20649552  0.48671380    -0.84800
O6          O  0.35649881  0.18762214  0.48516451    -0.86200
O7          O  0.25999803  0.15333600  0.56689954    -0.84600
O8          O  0.26070107  0.15143847  0.39605260    -0.84200
Zr9        Zr  0.26142835  0.18439020  0.48128082     2.84300
O10         O  0.23149306  0.22097234  0.53964148    -1.06200
O11         O  0.29780046  0.21333474  0.42176817    -1.06900
C12         C  0.26344800  0.15741677  0.34368732     1.08500
C13         C  0.26269171  0.16019886  0.61915039     1.08400
C14         C  0.34354060  0.15803850  0.48853794     1.11400
C15         C  0.17528067  0.17530399  0.49105175     1.09200
H16         H  0.31066265  0.19982311  0.56235765     0.34800
O17         O  0.29745952  0.21495254  0.54009749    -1.27200
H18         H  0.21568046  0.20579775  0.40059344     0.34400
O19         O  0.23118504  0.21946914  0.42190780    -1.28800
O20         O  0.26772611  0.31157648  0.64008573    -0.84600
O21         O  0.26600147  0.30842531  0.32097536    -0.86100
O22         O  0.36494888  0.24354392  0.56600167    -0.84700
O23         O  0.16973824  0.25577405  0.56667713    -0.84700
O24         O  0.17012921  0.25698547  0.39457456    -0.84400
O25         O  0.36564006  0.24439799  0.39548080    -0.84300
O26         O  0.32811271  0.34022694  0.48893250    -0.84600
O27         O  0.22290445  0.34961080  0.48768672    -0.84100
O28         O  0.36506203  0.29628008  0.49186324    -0.85200
O29         O  0.17843854  0.31328811  0.48864993    -0.84300
O30         O  0.32785277  0.24943746  0.63929397    -0.84700
O31         O  0.32845996  0.24778553  0.32207860    -0.84400
O32         O  0.20739198  0.24976679  0.32180308    -0.84100
O33         O  0.20684291  0.25072620  0.63986972    -0.84500
O34         O  0.27232438  0.34797766  0.56640340    -0.84800
O35         O  0.27050698  0.34633591  0.39390187    -0.86100
Zr36       Zr  0.26724572  0.25087066  0.60161877     2.83100
Zr37       Zr  0.26758858  0.24875520  0.36045047     2.83500
Zr38       Zr  0.33338854  0.24439832  0.48070214     2.84100
Zr39       Zr  0.20132062  0.25658108  0.48076201     2.83400
Zr40       Zr  0.27279522  0.31583965  0.48060075     2.84200
O41         O  0.23709814  0.28562307  0.42094158    -1.06700
O42         O  0.30279992  0.28036398  0.53960272    -1.06200
C43         C  0.26956834  0.34194191  0.61869120     1.08500
C44         C  0.26733054  0.33922311  0.34171069     1.11100
C45         C  0.35836206  0.24651868  0.61818950     1.08600
C46         C  0.17628270  0.25272823  0.61884331     1.09000
C47         C  0.17686567  0.25313433  0.34248540     1.08600
C48         C  0.35916453  0.24627924  0.34311085     1.08100
C49         C  0.35760514  0.32769447  0.49459579     1.08600
C50         C  0.19157640  0.34281059  0.49172700     1.08100
H51         H  0.31882044  0.29366974  0.39975682     0.34700
O52         O  0.30350229  0.28015088  0.42119337    -1.27800
H53         H  0.22382795  0.30149716  0.56281988     0.34800
O54         O  0.23714199  0.28628258  0.54035007    -1.29200
N55         N  0.52867299  0.45285583  0.60501760    -0.34700
N56         N  0.06778404  0.00739580  0.60821940    -0.55300
N57         N  0.51144036  0.04284196  0.58078443    -0.34700
N58         N  0.46880434  0.98551407  0.59795625    -0.55300
C59         C  0.05670145  0.44034456  0.59685915     0.28900
C60         C  0.50405162  0.43212996  0.58662183     0.28900
C61         C  0.03303109  0.07077983  0.58552438     0.28800
C62         C  0.48273745  0.05335663  0.55649309     0.28800
C63         C  0.09483845  0.48901527  0.61430020     0.37500
C64         C  0.08314967  0.03748182  0.61121239     0.37500
C65         C  0.45523015  0.46801472  0.61141847     0.37500
C66         C  0.44482906  0.00912042  0.59174077     0.36500
C67         C  0.05054891  0.40891095  0.57336583    -0.20000
C68         C  0.51800392  0.40496958  0.55830269    -0.20000
C69         C  0.01853929  0.09603555  0.55421584    -0.20000
C70         C  0.48945698  0.08042091  0.52229625    -0.20000
C71         C  0.12641095  0.50361491  0.61734039    -0.21100
C72         C  0.11754344  0.03325039  0.61754169    -0.21100
C73         C  0.42126889  0.47329716  0.62084704    -0.21100
C74         C  0.41364516  0.99627878  0.60560203    -0.21100
C75         C  0.08883868  0.45528837  0.59988514    -0.16400
C76         C  0.46932185  0.43726697  0.59397563    -0.16400
C77         C  0.45045843  0.04032626  0.56658707    -0.16400
C78         C  0.06768644  0.06756092  0.59515925    -0.16400
H79         H  0.06849237  0.39162062  0.55503513     0.16500
H80         H  0.50498394  0.38407365  0.53878277     0.16500
H81         H  0.03104563  0.11645472  0.53324084     0.16500
H82         H  0.47182502  0.09455444  0.49748164     0.16500
H83         H  0.15054422  0.49117051  0.61479291     0.14800
H84         H  0.13666864  0.05256862  0.61817945     0.14800
H85         H  0.40157291  0.45459279  0.62213959     0.14800
H86         H  0.38955803  0.00873986  0.60280810     0.14800
H87         H  0.52569934  0.47353277  0.63146540     0.28000
H88         H  0.51339028  0.02552796  0.61278381     0.28000
O89         O  0.01398938  0.43663193  0.81853355    -0.84600
O90         O  0.01581596  0.44124188  0.13652071    -0.84800
O91         O  0.05945928  0.39980653  0.97917797    -0.86500
O92         O  0.45437080  0.40917917  0.98598113    -0.85200
O93         O  0.41633377  0.45226261  0.98504641    -0.84800
O94         O  0.10368390  0.43638904  0.97627835    -0.86200
O95         O  0.01057506  0.40311463  0.06408902    -0.84600
O96         O  0.00855844  0.40049590  0.89251731    -0.84200
Zr97       Zr  0.00913619  0.43335779  0.97698710     2.84300
O98         O  0.47965081  0.46835157  0.03754358    -1.06200
O99         O  0.04409168  0.46235493  0.91530944    -1.06900
C100        C  0.01189691  0.40638088  0.84032652     1.08500
C101        C  0.01367156  0.41041292  0.11622945     1.08400
C102        C  0.09087796  0.40680798  0.97976214     1.11400
C103        C  0.42457262  0.42127267  0.98870585     1.09200
H104        H  0.05940554  0.44904464  0.05622475     0.34800
O105        O  0.04576607  0.46398646  0.03433083    -1.27200
H106        H  0.46283821  0.45331468  0.89787707     0.34400
O107        O  0.47824697  0.46715027  0.91911862    -1.28800
O108        O  0.01757390  0.06396865  0.13113688    -0.84600
O109        O  0.01706036  0.05741906  0.81262050    -0.86100
O110        O  0.11317730  0.49326996  0.05748741    -0.84700
O111        O  0.41752852  0.50208633  0.06565626    -0.84700
O112        O  0.41775468  0.00234184  0.89277142    -0.84400
O113        O  0.11422357  0.99735269  0.88765119    -0.84300
O114        O  0.07452510  0.09224297  0.98340474    -0.84600
O115        O  0.46609387  0.09663645  0.98179480    -0.84100
O116        O  0.11294441  0.04956229  0.98483629    -0.85200
O117        O  0.42398542  0.05761334  0.98454261    -0.84300
O118        O  0.07682312  0.49991519  0.13159514    -0.84700
O119        O  0.07658201  0.99770324  0.81455843    -0.84400
O120        O  0.45415323  0.99926526  0.81808379    -0.84100
O121        O  0.45535582  0.49846750  0.13818506    -0.84500
O122        O  0.01887169  0.09997010  0.05655862    -0.84800
O123        O  0.51490455  0.09595337  0.88784407    -0.86100
Zr124      Zr  0.01598985  0.50051914  0.09565848     2.83100
Zr125      Zr  0.01632555  0.99825706  0.85349393     2.83500
Zr126      Zr  0.08052609  0.49291508  0.97280129     2.84100
Zr127      Zr  0.44821677  0.50327956  0.97909736     2.83400
Zr128      Zr  0.02045846  0.06610480  0.97230094     2.84200
O129        O  0.48336092  0.03353668  0.91667072    -1.06700
O130        O  0.05184751  0.03251034  0.03195605    -1.06200
C131        C  0.01788987  0.09427985  0.10920467     1.08500
C132        C  0.51401492  0.08859939  0.83557553     1.11100
C133        C  0.10711836  0.49693463  0.10983094     1.08600
C134        C  0.42456416  0.49982162  0.11774397     1.09000
C135        C  0.42390401  0.00089281  0.84017704     1.08600
C136        C  0.10727213  0.99765327  0.83538890     1.08100
C137        C  0.10426797  0.08052515  0.98937086     1.08600
C138        C  0.43527909  0.08783668  0.98663169     1.08100
H139        H  0.06675230  0.04471709  0.89154242     0.34700
O140        O  0.05178811  0.03098918  0.91328943    -1.27800
H141        H  0.47177327  0.04952597  0.05887132     0.34800
O142        O  0.48523116  0.03470618  0.03588756    -1.29200
N143        N  0.27034309  0.19421211  0.12737140    -0.34700
N144        N  0.31524980  0.25060637  0.10902203    -0.55300
N145        N  0.25958190  0.29547815  0.08975496    -0.34700
N146        N  0.21472114  0.24064573  0.10742197    -0.55300
C147        C  0.29893499  0.17795091  0.11301684     0.28900
C148        C  0.24477735  0.17277650  0.11672028     0.28900
C149        C  0.28526817  0.31458108  0.07214749     0.28800
C150        C  0.23133206  0.30823199  0.06714328     0.28800
C151        C  0.33797615  0.22639762  0.11911166     0.37500
C152        C  0.33249880  0.27962883  0.10664537     0.37500
C153        C  0.19781865  0.21351328  0.12496060     0.37500
C154        C  0.19189480  0.26539584  0.10195325     0.37500
C155        C  0.29156972  0.14516677  0.09692093    -0.20000
C156        C  0.25737917  0.14189251  0.09932280    -0.20000
C157        C  0.27317283  0.34048392  0.03939774    -0.20000
C158        C  0.23908348  0.33636763  0.03602882    -0.20000
C159        C  0.36982131  0.24010058  0.12442120    -0.21100
C160        C  0.36631774  0.27400108  0.11699038    -0.21100
C161        C  0.16412145  0.22133889  0.13225278    -0.21100
C162        C  0.16034798  0.25430488  0.11741627    -0.21100
C163        C  0.33132174  0.19213509  0.11157888    -0.16400
C164        C  0.21036434  0.18076037  0.11938909    -0.16400
C165        C  0.19866983  0.29604184  0.07600936    -0.16400
C166        C  0.31921836  0.30959364  0.08558808    -0.16400
H167        H  0.30889753  0.12585061  0.08310854     0.16500
H168        H  0.24335948  0.11962370  0.08758747     0.16500
H169        H  0.28738788  0.36022815  0.01964909     0.16500
H170        H  0.22200132  0.35244797  0.01353349     0.16500
H171        H  0.39327658  0.22677887  0.12985094     0.14800
H172        H  0.38662016  0.29203975  0.11545132     0.14800
H173        H  0.14402677  0.20432107  0.14313796     0.14800
H174        H  0.13690472  0.26800201  0.11551483     0.14800
H175        H  0.26826754  0.21835144  0.14411370     0.28000
H176        H  0.26111636  0.27692393  0.11976104     0.28000
C177        C  0.01855448  0.25243902  0.22936909    -0.00600
C178        C  0.26477882  0.49691202  0.22630705    -0.00600
C179        C  0.01725803  0.24744962  0.72961174    -0.00600
C180        C  0.26365533  0.50224047  0.72608001    -0.00600
C181        C  0.13819618  0.49783592  0.14399859    -0.16600
C182        C  0.16770404  0.49791901  0.16024210     0.07400
C183        C  0.20334821  0.49754434  0.17525742     0.09300
C184        C  0.23285515  0.49711311  0.19159512    -0.17500
C185        C  0.39383629  0.49854964  0.15288875    -0.16600
C186        C  0.36414604  0.49776642  0.16839437     0.07400
C187        C  0.32814098  0.49711552  0.18139844     0.09300
C188        C  0.29813348  0.49682585  0.19527024    -0.17500
C189        C  0.01789868  0.28563606  0.19857217    -0.16600
C190        C  0.01723666  0.31539298  0.18395261     0.07400
C191        C  0.01629182  0.35098713  0.16909618     0.09300
C192        C  0.01525900  0.38018277  0.15189335    -0.17500
C193        C  0.01775399  0.22034320  0.19434358    -0.16600
C194        C  0.01710889  0.19087543  0.17703389     0.07400
C195        C  0.01678779  0.15525162  0.16057100     0.09300
C196        C  0.01703598  0.12571333  0.14351930    -0.17500
C197        C  0.17119635  0.31514010  0.05353596    -0.16600
C198        C  0.15131369  0.33334181  0.03149354     0.07400
C199        C  0.13063921  0.35727506  0.00624136     0.09300
C200        C  0.11314944  0.37952364  0.98951794    -0.17500
C201        C  0.39875209  0.39841813  0.00114400    -0.16600
C202        C  0.37961129  0.37880405  0.02052498     0.07400
C203        C  0.35966887  0.35554495  0.04755304     0.09300
C204        C  0.34220595  0.33489830  0.06833586    -0.17500
C205        C  0.41228090  0.11359989  0.00155438    -0.16600
C206        C  0.39522583  0.13386223  0.02549190     0.07400
C207        C  0.37621533  0.15504358  0.05999707     0.09300
C208        C  0.35774930  0.17196066  0.08795407    -0.17500
C209        C  0.18710367  0.15611731  0.09867540    -0.16600
C210        C  0.16884131  0.13878082  0.07114836     0.07400
C211        C  0.14813426  0.12032096  0.03518426     0.09300
C212        C  0.12916436  0.10331208  0.00847920    -0.17500
C213        C  0.39300946  0.00099985  0.80600071    -0.16600
C214        C  0.36352489  0.00131830  0.79015190     0.07400
C215        C  0.32787868  0.00165524  0.77617131     0.09300
C216        C  0.29829033  0.00169773  0.76070198    -0.17500
C217        C  0.13791777  0.99831860  0.80045249    -0.16600
C218        C  0.16758154  0.99900366  0.78531049     0.07400
C219        C  0.20348177  0.99972483  0.77268754     0.09300
C220        C  0.23335359  0.00030536  0.75860743    -0.17500
C221        C  0.01886030  0.11845700  0.79787221    -0.16600
C222        C  0.01846557  0.14809134  0.78316808     0.07400
C223        C  0.51600904  0.18429969  0.77210500     0.09300
C224        C  0.01760047  0.21417193  0.75973834    -0.17500
C225        C  0.01696774  0.27932945  0.76468645    -0.16600
C226        C  0.01634767  0.30909608  0.77994024     0.07400
C227        C  0.51448187  0.34519480  0.79030647     0.09300
C228        C  0.01386143  0.37499332  0.80675461    -0.17500
C229        C  0.38927814  0.24682332  0.65261822    -0.16600
C230        C  0.41906347  0.24681871  0.66729321     0.07400
C231        C  0.45505790  0.24683012  0.67951139     0.09300
C232        C  0.48496800  0.24691754  0.69353317    -0.17500
C233        C  0.14537773  0.25119030  0.65347308    -0.16600
C234        C  0.11574903  0.25020568  0.66914930     0.07400
C235        C  0.07984195  0.24926507  0.68255411     0.09300
C236        C  0.04996419  0.24850574  0.69698921    -0.17500
C237        C  0.26340012  0.12952101  0.65369029    -0.16600
C238        C  0.26415187  0.09991876  0.66888105     0.07400
C239        C  0.26511381  0.06403611  0.68154461     0.09300
C240        C  0.26583169  0.03415350  0.69531630    -0.17500
C241        C  0.26785137  0.37326479  0.65276046    -0.16600
C242        C  0.26657016  0.40319858  0.66724717     0.07400
C243        C  0.26536029  0.43935102  0.67927882     0.09300
C244        C  0.26453490  0.46942413  0.69313262    -0.17500
C245        C  0.36558889  0.13028630  0.49763717    -0.16600
C246        C  0.38235859  0.10651999  0.51075477     0.07400
C247        C  0.40234997  0.07992957  0.53006064     0.09300
C248        C  0.42221546  0.05985929  0.54751078    -0.17500
C249        C  0.14849630  0.15337707  0.50404027    -0.16600
C250        C  0.12786362  0.13545993  0.52423286     0.07400
C251        C  0.10638558  0.11407173  0.55291117     0.09300
C252        C  0.08893349  0.09403095  0.57569645    -0.17500
C253        C  0.17024552  0.37033467  0.50552458    -0.16600
C254        C  0.15455320  0.39313682  0.52561855     0.07400
C255        C  0.13579758  0.41760314  0.55419645     0.09300
C256        C  0.11652194  0.43596486  0.57791312    -0.17500
C257        C  0.44668496  0.41161034  0.57353221    -0.16600
C258        C  0.42763664  0.39180899  0.55241281     0.07400
C259        C  0.40470902  0.36957862  0.52706272     0.09300
C260        C  0.38398765  0.35053844  0.50863070    -0.17500
C261        C  0.14624432  0.25207171  0.30739726    -0.16600
C262        C  0.11681693  0.25164741  0.29096260     0.07400
C263        C  0.08115983  0.25157866  0.27644588     0.09300
C264        C  0.05147918  0.25181314  0.26121229    -0.17500
C265        C  0.39036112  0.24717651  0.30846875    -0.16600
C266        C  0.42012671  0.24793115  0.29269839     0.07400
C267        C  0.45619071  0.24882048  0.27869350     0.09300
C268        C  0.48612216  0.24956155  0.26370524    -0.17500
C269        C  0.26507841  0.36967252  0.30647424    -0.16600
C270        C  0.26398751  0.39894751  0.28943850     0.07400
C271        C  0.26359828  0.43456875  0.27422229     0.09300
C272        C  0.26387527  0.46422232  0.25877661    -0.17500
C273        C  0.26408072  0.12610915  0.30891861    -0.16600
C274        C  0.26472311  0.09646193  0.29224908     0.07400
C275        C  0.26573050  0.06059426  0.27693270     0.09300
C276        C  0.26674366  0.03084832  0.26077315    -0.17500
O277        O  0.26569080  0.68722751  0.31627531    -0.84600
O278        O  0.26409006  0.69144683  0.63401980    -0.84800
O279        O  0.31094204  0.65020532  0.48371786    -0.86500
O280        O  0.20443152  0.66293213  0.48232032    -0.85200
O281        O  0.16845289  0.70778712  0.48231760    -0.84800
O282        O  0.35564108  0.68626354  0.48265695    -0.86200
O283        O  0.25837191  0.65363211  0.56116523    -0.84600
O284        O  0.25972755  0.65124321  0.39021770    -0.84200
Zr285      Zr  0.26097458  0.68430509  0.47511115     2.84300
O286        O  0.23156530  0.72185860  0.53261046    -1.06200
O287        O  0.29766002  0.71216904  0.41476060    -1.06900
C288        C  0.26263921  0.65698932  0.33783270     1.08500
C289        C  0.26089252  0.66069031  0.61339734     1.08400
C290        C  0.34238335  0.65699358  0.48735250     1.11400
C291        C  0.17524337  0.67644566  0.48612690     1.09200
H292        H  0.30990088  0.69941523  0.55715736     0.34800
O293        O  0.29705643  0.71449132  0.53425142    -1.27200
H294        H  0.21563691  0.70612411  0.39408271     0.34400
O295        O  0.23132411  0.71968785  0.41521908    -1.28800
O296        O  0.26983573  0.81229126  0.63231916    -0.84600
O297        O  0.27003826  0.80821095  0.31396731    -0.86100
O298        O  0.36489965  0.74344056  0.56005492    -0.84700
O299        O  0.17019824  0.75829689  0.55904375    -0.84700
O300        O  0.17034642  0.75627868  0.38744873    -0.84400
O301        O  0.36536290  0.74110292  0.38843342    -0.84300
O302        O  0.33088006  0.83754534  0.48382565    -0.84600
O303        O  0.22462694  0.85030674  0.47606287    -0.84100
O304        O  0.36679432  0.79266243  0.48401572    -0.85200
O305        O  0.17973898  0.81448969  0.47717838    -0.84300
O306        O  0.32784615  0.75009195  0.63318867    -0.84700
O307        O  0.32845057  0.74558629  0.31485115    -0.84400
O308        O  0.20758848  0.74965493  0.31454217    -0.84100
O309        O  0.20695010  0.75267710  0.63258888    -0.84500
O310        O  0.27509756  0.84852878  0.55851778    -0.84800
O311        O  0.27657826  0.84609425  0.38658446    -0.86100
Zr312      Zr  0.26738224  0.75146985  0.59476451     2.83100
Zr313      Zr  0.26798915  0.74826805  0.35339088     2.83500
Zr314      Zr  0.33334895  0.74267572  0.47409023     2.84100
Zr315      Zr  0.20200199  0.75757774  0.47324428     2.83400
Zr316      Zr  0.27449821  0.81577066  0.47304784     2.84200
O317        O  0.23824072  0.78604639  0.41331150    -1.06700
O318        O  0.30344598  0.77963771  0.53213875    -1.06200
C319        C  0.27248270  0.84258407  0.61092673     1.08500
C320        C  0.27325885  0.83898224  0.33448181     1.11100
C321        C  0.35839464  0.74700609  0.61226943     1.08600
C322        C  0.17650663  0.75513292  0.61128339     1.09000
C323        C  0.17698312  0.75261000  0.33529487     1.08600
C324        C  0.35899203  0.74328474  0.33603071     1.08100
C325        C  0.35999635  0.82401572  0.48884439     1.08600
C326        C  0.19311231  0.84390599  0.47918572     1.08100
H327        H  0.32015468  0.79187406  0.39292317     0.34700
O328        O  0.30434962  0.77891791  0.41435087    -1.27800
H329        H  0.22485463  0.80301587  0.55476752     0.34800
O330        O  0.23796193  0.78729580  0.53289555    -1.29200
N331        N  0.52648203  0.94274817  0.62151708    -0.34700
N332        N  0.07080700  0.51281605  0.61588592    -0.55300
N333        N  0.51438865  0.55671189  0.61538624    -0.34700
N334        N  0.47154982  0.49763996  0.60910869    -0.55300
C335        C  0.05556958  0.93439757  0.59461800     0.28900
C336        C  0.50249875  0.91963644  0.61017667     0.28900
C337        C  0.03637831  0.57979639  0.60991153     0.28800
C338        C  0.48541955  0.57001412  0.59621310     0.28800
C339        C  0.09223707  0.98406461  0.60999878     0.37500
C340        C  0.08683142  0.54257181  0.61781969     0.37500
C341        C  0.45301922  0.95742941  0.61446900     0.37500
C342        C  0.44797471  0.52173616  0.61489071     0.36500
C343        C  0.04956219  0.90267416  0.57220578    -0.20000
C344        C  0.51726647  0.88942492  0.59444505    -0.20000
C345        C  0.02174747  0.61040291  0.59710988    -0.20000
C346        C  0.49190808  0.60026449  0.57011362    -0.20000
C347        C  0.12332845  0.99928322  0.61623095    -0.21100
C348        C  0.12133640  0.53763045  0.61933943    -0.21100
C349        C  0.41884118  0.96341019  0.62004113    -0.21100
C350        C  0.41666024  0.50741522  0.62295504    -0.21100
C351        C  0.08724973  0.95028840  0.59500921    -0.16400
C352        C  0.46764493  0.92539712  0.61127116    -0.16400
C353        C  0.45334121  0.55543583  0.60091041    -0.16400
C354        C  0.07125341  0.57375799  0.60894624    -0.16400
H355        H  0.06747963  0.88567396  0.55305332     0.16500
H356        H  0.50487382  0.86620867  0.58268783     0.16500
H357        H  0.03426342  0.63376947  0.58753645     0.16500
H358        H  0.47409770  0.61685644  0.55033436     0.16500
H359        H  0.14770220  0.98724000  0.61621153     0.14800
H360        H  0.14081567  0.55658793  0.61886042     0.14800
H361        H  0.39949466  0.94534911  0.63001640     0.14800
H362        H  0.39273823  0.52021047  0.62612486     0.14800
H363        H  0.52267335  0.96686005  0.63750182     0.28000
H364        H  0.51685066  0.53543774  0.63993408     0.28000
O365        O  0.01686345  0.93733206  0.81654886    -0.84600
O366        O  0.01589671  0.94255912  0.13497701    -0.84800
O367        O  0.06532346  0.90339001  0.97688801    -0.86500
O368        O  0.45902970  0.90881877  0.99014299    -0.85200
O369        O  0.41983519  0.95081355  0.99040447    -0.84800
O370        O  0.10822894  0.94151661  0.97458194    -0.86200
O371        O  0.01355917  0.90443201  0.06207221    -0.84600
O372        O  0.01296501  0.90146987  0.89096712    -0.84200
Zr373      Zr  0.01375622  0.93486303  0.97576225     2.84300
O374        O  0.48290351  0.96922563  0.03597365    -1.06200
O375        O  0.04833638  0.96473032  0.91523326    -1.06900
C376        C  0.01528783  0.90710953  0.83843040     1.08500
C377        C  0.01458608  0.91163442  0.11435911     1.08400
C378        C  0.09646349  0.91147414  0.97638522     1.11400
C379        C  0.42904549  0.92016285  0.99599093     1.09200
H380        H  0.06268500  0.95204937  0.05636776     0.34800
O381        O  0.04886053  0.96672038  0.03425874    -1.27200
H382        H  0.46502894  0.95267894  0.89678440     0.34400
O383        O  0.48029552  0.96708334  0.91725970    -1.28800
O384        O  0.01880010  0.56132310  0.13330374    -0.84600
O385        O  0.01472892  0.55815080  0.81545253    -0.86100
O386        O  0.11573954  0.99709673  0.05794304    -0.84700
O387        O  0.41992897  0.00274981  0.06504350    -0.84700
O388        O  0.41616371  0.50422456  0.89331687    -0.84400
O389        O  0.11122674  0.49294254  0.88617577    -0.84300
O390        O  0.07593698  0.58767924  0.98345471    -0.84600
O391        O  0.46725729  0.59644992  0.98745024    -0.84100
O392        O  0.11286873  0.54362921  0.98386322    -0.85200
O393        O  0.42377934  0.55898359  0.98912492    -0.84300
O394        O  0.07884257  0.00246965  0.13160168    -0.84700
O395        O  0.07345292  0.49717150  0.81374494    -0.84400
O396        O  0.45288480  0.49926776  0.81935340    -0.84100
O397        O  0.45833979  0.00056169  0.13686312    -0.84500
O398        O  0.02239650  0.59736267  0.05902536    -0.84800
O399        O  0.51733160  0.59530184  0.89265684    -0.86100
Zr400      Zr  0.01763815  0.00256056  0.09497310     2.83100
Zr401      Zr  0.01352604  0.49792153  0.85435082     2.83500
Zr402      Zr  0.08304694  0.99704896  0.97350563     2.84100
Zr403      Zr  0.45006141  0.00268239  0.97790045     2.83400
Zr404      Zr  0.02006355  0.56470598  0.97392212     2.84200
O405        O  0.48248096  0.53367384  0.91867393    -1.06700
O406        O  0.05058211  0.52922614  0.03176276    -1.06200
C407        C  0.02100484  0.59155962  0.11152764     1.08500
C408        C  0.51543913  0.58849091  0.84024020     1.11100
C409        C  0.10941209  0.00001253  0.11028079     1.08600
C410        C  0.42738354  0.00133417  0.11706410     1.09000
C411        C  0.42243468  0.50185634  0.84078362     1.08600
C412        C  0.10421684  0.49539133  0.83410428     1.08100
C413        C  0.10531355  0.57482068  0.98877230     1.08600
C414        C  0.43615821  0.58876866  0.99274985     1.08100
H415        H  0.06543857  0.54233074  0.89253349     0.34700
O416        O  0.05019232  0.52886963  0.91420317    -1.27800
H417        H  0.47081589  0.54842156  0.06181971     0.34800
O418        O  0.48396955  0.53343165  0.03866164    -1.29200
N419        N  0.27041194  0.69613660  0.12141913    -0.34700
N420        N  0.31624353  0.75369786  0.12129911    -0.55300
N421        N  0.26251626  0.79826460  0.09163293    -0.34700
N422        N  0.21696141  0.74120941  0.08953579    -0.55300
C423        C  0.29999372  0.68032598  0.11229375     0.28900
C424        C  0.24595428  0.67392757  0.10801702     0.28900
C425        C  0.28908891  0.81888185  0.08482413     0.28800
C426        C  0.23715007  0.81084634  0.06075025     0.28800
C427        C  0.33858924  0.72875694  0.12879937     0.37500
C428        C  0.33358582  0.78269323  0.12547924     0.37500
C429        C  0.19827895  0.71380559  0.10012802     0.37500
C430        C  0.19516924  0.76569260  0.07595539     0.37500
C431        C  0.29410171  0.64717241  0.09651121    -0.20000
C432        C  0.26002374  0.64305811  0.09432488    -0.20000
C433        C  0.28001096  0.84558462  0.05119469    -0.20000
C434        C  0.24735088  0.84036539  0.03569046    -0.20000
C435        C  0.37016721  0.74188019  0.13964372    -0.21100
C436        C  0.36692408  0.77613608  0.13838456    -0.21100
C437        C  0.16438747  0.72112130  0.09411266    -0.21100
C438        C  0.16245371  0.75399456  0.07831739    -0.21100
C439        C  0.33221752  0.69493207  0.11562377    -0.16400
C440        C  0.21145857  0.68118681  0.10393787    -0.16400
C441        C  0.20460078  0.79734246  0.05625439    -0.16400
C442        C  0.32174559  0.81368756  0.10578046    -0.16400
H443        H  0.31244029  0.62800829  0.08629916     0.16500
H444        H  0.24717340  0.62032554  0.08135402     0.16500
H445        H  0.29551660  0.86630044  0.03780573     0.16500
H446        H  0.23285610  0.85645754  0.00870694     0.16500
H447        H  0.39341089  0.72814929  0.14475906     0.14800
H448        H  0.38735269  0.79398285  0.14163030     0.14800
H449        H  0.14338285  0.70402420  0.09763778     0.14800
H450        H  0.13968170  0.76743471  0.06809022     0.14800
H451        H  0.26689440  0.72037732  0.13683127     0.28000
H452        H  0.26112412  0.77826511  0.11897176     0.28000
C453        C  0.01851064  0.75158544  0.22102953    -0.00600
C454        C  0.26790576  0.99838811  0.22641471    -0.00600
C455        C  0.01767412  0.74771573  0.72347829    -0.00600
C456        C  0.26623466  0.00125764  0.72678928    -0.00600
C457        C  0.14059518  0.00039285  0.14472240    -0.16600
C458        C  0.17024888  0.99994815  0.16077678     0.07400
C459        C  0.20605640  0.99907658  0.17575696     0.09300
C460        C  0.23567186  0.99846370  0.19202057    -0.17500
C461        C  0.39694476  0.00043434  0.15291760    -0.16600
C462        C  0.36731149  0.99989106  0.16875206     0.07400
C463        C  0.33128421  0.99951141  0.18167769     0.09300
C464        C  0.30121867  0.99922156  0.19526417    -0.17500
C465        C  0.01747727  0.78495456  0.19020997    -0.16600
C466        C  0.01636146  0.81503406  0.17688303     0.07400
C467        C  0.01526430  0.85115090  0.16442776     0.09300
C468        C  0.01473349  0.88090398  0.14932875    -0.17500
C469        C  0.01951959  0.71912939  0.18696138    -0.16600
C470        C  0.02037219  0.68912102  0.17254592     0.07400
C471        C  0.02110671  0.65296531  0.16010558     0.09300
C472        C  0.02132453  0.62300960  0.14547534    -0.17500
C473        C  0.17951156  0.81744303  0.02929082    -0.16600
C474        C  0.16000620  0.83665422  0.00897857     0.07400
C475        C  0.13837786  0.86184553  0.99053839     0.09300
C476        C  0.11979551  0.88464846  0.98067109    -0.17500
C477        C  0.40448681  0.89728847  0.01544724    -0.16600
C478        C  0.38586252  0.87925112  0.04035112     0.07400
C479        C  0.36516700  0.85831873  0.07169507     0.09300
C480        C  0.34626793  0.83893997  0.09303111    -0.17500
C481        C  0.41422519  0.61520727  0.00973496    -0.16600
C482        C  0.39779308  0.63604791  0.03381265     0.07400
C483        C  0.37872484  0.65808082  0.06708632     0.09300
C484        C  0.35970835  0.67534506  0.09360364    -0.17500
C485        C  0.18940439  0.65418559  0.08819749    -0.16600
C486        C  0.17159228  0.63427535  0.06503917     0.07400
C487        C  0.15072757  0.61379431  0.03255741     0.09300
C488        C  0.13120613  0.59659564  0.00736133    -0.17500
C489        C  0.39141548  0.50188584  0.80604559    -0.16600
C490        C  0.36189727  0.50218465  0.78946520     0.07400
C491        C  0.32609470  0.50260592  0.77464654     0.09300
C492        C  0.29632228  0.50276698  0.75924106    -0.17500
C493        C  0.13492298  0.49692115  0.79905562    -0.16600
C494        C  0.16465987  0.49833450  0.78403931     0.07400
C495        C  0.20070814  0.49999463  0.77181157     0.09300
C496        C  0.23072169  0.50126253  0.75818959    -0.17500
C497        C  0.01723693  0.61962431  0.80096615    -0.16600
C498        C  0.01745175  0.64911472  0.78460995     0.07400
C499        C  0.51614551  0.68430771  0.77409665     0.09300
C500        C  0.01804119  0.71473359  0.75532766    -0.17500
C501        C  0.01737907  0.78033636  0.75728879    -0.16600
C502        C  0.01729301  0.81013589  0.77305182     0.07400
C503        C  0.51510046  0.84524657  0.78928390     0.09300
C504        C  0.01637343  0.87567961  0.80424503    -0.17500
C505        C  0.38935729  0.74762071  0.64709978    -0.16600
C506        C  0.41897014  0.74748350  0.66322519     0.07400
C507        C  0.45485217  0.74700621  0.67750916     0.09300
C508        C  0.48467286  0.74662907  0.69264566    -0.17500
C509        C  0.14547765  0.75358130  0.64564624    -0.16600
C510        C  0.11588774  0.75200914  0.66143764     0.07400
C511        C  0.08007618  0.75005943  0.67539847     0.09300
C512        C  0.05032628  0.74861057  0.69050210    -0.17500
C513        C  0.26084410  0.63006689  0.64848383    -0.16600
C514        C  0.26118732  0.60055696  0.66461312     0.07400
C515        C  0.26201081  0.56474784  0.67879340     0.09300
C516        C  0.26287976  0.53498927  0.69371342    -0.17500
C517        C  0.27174981  0.87379220  0.64551693    -0.16600
C518        C  0.27072588  0.90336990  0.66203076     0.07400
C519        C  0.26911613  0.93912104  0.67701646     0.09300
C520        C  0.26764078  0.96881152  0.69288934    -0.17500
C521        C  0.36410294  0.63037374  0.50331285    -0.16600
C522        C  0.38221081  0.61055768  0.52565911     0.07400
C523        C  0.40422249  0.59020438  0.55597224     0.09300
C524        C  0.42517693  0.57417944  0.57988704    -0.17500
C525        C  0.14846523  0.65517862  0.50128421    -0.16600
C526        C  0.12850270  0.63826167  0.52517047     0.07400
C527        C  0.10836289  0.61854601  0.55914423     0.09300
C528        C  0.09192580  0.59969251  0.58626170    -0.17500
C529        C  0.17156346  0.87163532  0.49135649    -0.16600
C530        C  0.15460658  0.89338777  0.51200959     0.07400
C531        C  0.13450306  0.91578634  0.54294973     0.09300
C532        C  0.11488605  0.93241242  0.56947472    -0.17500
C533        C  0.44612564  0.89858015  0.59278411    -0.16600
C534        C  0.42840455  0.87972392  0.56706171     0.07400
C535        C  0.40697967  0.86098195  0.53268118     0.09300
C536        C  0.38660275  0.84506067  0.50702765    -0.17500
C537        C  0.14614294  0.75149664  0.30034801    -0.16600
C538        C  0.11659838  0.75125798  0.28407221     0.07400
C539        C  0.08081729  0.75148159  0.26955759     0.09300
C540        C  0.05109590  0.75174496  0.25414807    -0.17500
C541        C  0.39006522  0.74402463  0.30139188    -0.16600
C542        C  0.41969238  0.74526972  0.28538423     0.07400
C543        C  0.45559083  0.74721707  0.27131834     0.09300
C544        C  0.48543438  0.74890191  0.25644315    -0.17500
C545        C  0.27233040  0.86960797  0.29949466    -0.16600
C546        C  0.27112997  0.89922077  0.28402667     0.07400
C547        C  0.26941859  0.93518472  0.27115608     0.09300
C548        C  0.26818706  0.96516213  0.25749345    -0.17500
C549        C  0.26291284  0.62554505  0.30364321    -0.16600
C550        C  0.26316767  0.59572766  0.28807334     0.07400
C551        C  0.26360772  0.55969952  0.27433473     0.09300
C552        C  0.26408845  0.52976223  0.25940131    -0.17500
O553        O  0.76952760  0.19215456  0.31559473    -0.84600
O554        O  0.76602464  0.18801843  0.63344404    -0.84800
O555        O  0.81272248  0.15079094  0.48068813    -0.86500
O556        O  0.70707286  0.16192877  0.47923985    -0.85200
O557        O  0.67019219  0.20601163  0.48180491    -0.84800
O558        O  0.85732447  0.18682612  0.48723002    -0.86200
O559        O  0.76180776  0.15188580  0.55800975    -0.84600
O560        O  0.76365625  0.15442221  0.38700964    -0.84200
Zr561      Zr  0.76301275  0.18501386  0.47435470     2.84300
O562        O  0.73254197  0.22058771  0.53368686    -1.06200
O563        O  0.80000810  0.21496226  0.41761245    -1.06900
C564        C  0.76689710  0.16139286  0.33515573     1.08500
C565        C  0.76400620  0.15769228  0.61070592     1.08400
C566        C  0.84395643  0.15735040  0.48771990     1.11400
C567        C  0.67753151  0.17457396  0.48360735     1.09200
H568        H  0.81098266  0.19853655  0.55875204     0.34800
O569        O  0.79820738  0.21401739  0.53651371    -1.27200
H570        H  0.71796306  0.20806030  0.39348849     0.34400
O571        O  0.73324661  0.22127197  0.41602135    -1.28800
O572        O  0.76751909  0.30918570  0.63983095    -0.84600
O573        O  0.77079368  0.31287944  0.32297509    -0.86100
O574        O  0.86573381  0.24340632  0.56674554    -0.84700
O575        O  0.67025752  0.25626138  0.56064073    -0.84700
O576        O  0.67233144  0.25869576  0.38936961    -0.84400
O577        O  0.86735246  0.24426458  0.39498446    -0.84300
O578        O  0.83178726  0.33857000  0.49661005    -0.84600
O579        O  0.72661671  0.35061946  0.48543990    -0.84100
O580        O  0.86825013  0.29419365  0.49667211    -0.85200
O581        O  0.68160376  0.31489872  0.48241317    -0.84300
O582        O  0.82760905  0.24883107  0.63865664    -0.84700
O583        O  0.83084222  0.25082421  0.32114709    -0.84400
O584        O  0.71018293  0.25389375  0.31699688    -0.84100
O585        O  0.70660172  0.24868645  0.63427993    -0.84500
O586        O  0.77443337  0.34672546  0.56830952    -0.84800
O587        O  0.77732885  0.34906685  0.39784025    -0.86100
Zr588      Zr  0.76753211  0.24912588  0.59857913     2.83100
Zr589      Zr  0.77027041  0.25197875  0.35775365     2.83500
Zr590      Zr  0.83524902  0.24387034  0.48011313     2.84100
Zr591      Zr  0.70299965  0.25732945  0.47599353     2.83400
Zr592      Zr  0.77595081  0.31602749  0.48154515     2.84200
O593        O  0.73994657  0.28766351  0.41971721    -1.06700
O594        O  0.80439563  0.27908511  0.53962874    -1.06200
C595        C  0.77029001  0.33985826  0.61996048     1.08500
C596        C  0.77357254  0.34316492  0.34541716     1.11100
C597        C  0.85844956  0.24650219  0.61869970     1.08600
C598        C  0.67627984  0.25173810  0.61268471     1.09000
C599        C  0.67935844  0.25624195  0.33722078     1.08600
C600        C  0.86112459  0.24784365  0.34280657     1.08100
C601        C  0.86100966  0.32546125  0.50288420     1.08600
C602        C  0.69510466  0.34427032  0.48661506     1.08100
H603        H  0.82243706  0.29489742  0.40117428     0.34700
O604        O  0.80662349  0.28116300  0.42120928    -1.27800
H605        H  0.72512574  0.30100495  0.56020456     0.34800
O606        O  0.73861274  0.28587998  0.53784042    -1.29200
N607        N  0.02746932  0.45398723  0.61500568    -0.34700
N608        N  0.56886169  0.00166484  0.60453769    -0.55300
N609        N  0.00902811  0.04992379  0.60464004    -0.34700
N610        N  0.96784407  0.99078576  0.61463825    -0.55300
C611        C  0.55803629  0.43998875  0.58621576     0.28900
C612        C  0.00278656  0.43207639  0.60103958     0.28900
C613        C  0.53641018  0.06251183  0.56146192     0.28800
C614        C  0.97946159  0.06114612  0.58433878     0.28800
C615        C  0.59530363  0.48724058  0.61431478     0.37500
C616        C  0.58472022  0.03148534  0.60103198     0.37500
C617        C  0.95290603  0.46825548  0.62061784     0.37500
C618        C  0.94349787  0.01431423  0.61550009     0.36500
C619        C  0.55205804  0.40995626  0.55790205    -0.20000
C620        C  0.01665717  0.40368744  0.57613035    -0.20000
C621        C  0.52332911  0.08624808  0.52553816    -0.20000
C622        C  0.98473985  0.08987990  0.55326303    -0.20000
C623        C  0.62646835  0.50110184  0.62604070    -0.21100
C624        C  0.61846434  0.02782723  0.61395995    -0.21100
C625        C  0.91855913  0.47340761  0.62566074    -0.21100
C626        C  0.91287321  0.99997962  0.62867328    -0.21100
C627        C  0.59005659  0.45452890  0.59365696    -0.16400
C628        C  0.96796952  0.43698059  0.60869036    -0.16400
C629        C  0.94777220  0.04666242  0.59404500    -0.16400
C630        C  0.57058375  0.05996737  0.57596340    -0.16400
H631        H  0.57023388  0.39350031  0.53813072     0.16500
H632        H  0.00365935  0.38173248  0.56016005     0.16500
H633        H  0.53678783  0.10565420  0.50356878     0.16500
H634        H  0.96626250  0.10480637  0.53162612     0.16500
H635        H  0.65047198  0.48834923  0.62672761     0.14800
H636        H  0.63789007  0.04679497  0.61221047     0.14800
H637        H  0.89900402  0.45455457  0.62690317     0.14800
H638        H  0.88856591  0.01213985  0.62983812     0.14800
H639        H  0.02466852  0.47591805  0.63841448     0.28000
H640        H  0.01248636  0.03071840  0.63319148     0.28000
O641        O  0.51345164  0.43661096  0.81977176    -0.84600
O642        O  0.51557167  0.43853021  0.13725591    -0.84800
O643        O  0.56040888  0.40011553  0.97732599    -0.86500
O644        O  0.95336483  0.41051534  0.98818425    -0.85200
O645        O  0.91627174  0.45434067  0.98427099    -0.84800
O646        O  0.60407385  0.43743168  0.97537557    -0.86200
O647        O  0.51102800  0.40119302  0.06357809    -0.84600
O648        O  0.50873023  0.39998734  0.89308730    -0.84200
Zr649      Zr  0.50978127  0.43277380  0.97802353     2.84300
O650        O  0.97965287  0.47012422  0.03525373    -1.06200
O651        O  0.54470657  0.46263020  0.91763184    -1.06900
C652        C  0.51152248  0.40614182  0.84085759     1.08500
C653        C  0.51375780  0.40788525  0.11594721     1.08400
C654        C  0.59166223  0.40763234  0.97707813     1.11400
C655        C  0.92386358  0.42341582  0.99125309     1.09200
H656        H  0.55985145  0.44819467  0.05767633     0.34800
O657        O  0.54603849  0.46329720  0.03637586    -1.27200
H658        H  0.96261741  0.45399483  0.89586788     0.34400
O659        O  0.97823376  0.46778223  0.91677570    -1.28800
O660        O  0.51976376  0.06127660  0.13472830    -0.84600
O661        O  0.51381133  0.05777351  0.81484699    -0.86100
O662        O  0.61310587  0.49289536  0.06089680    -0.84700
O663        O  0.91808224  0.50373386  0.06253604    -0.84700
O664        O  0.91843275  0.00181745  0.88918622    -0.84400
O665        O  0.61292935  0.99740253  0.88519560    -0.84300
O666        O  0.57212792  0.09365694  0.96939987    -0.84600
O667        O  0.96948092  0.09770606  0.97229883    -0.84100
O668        O  0.61125535  0.05159315  0.96786515    -0.85200
O669        O  0.92591910  0.06037465  0.97559747    -0.84300
O670        O  0.57664917  0.49768821  0.13522613    -0.84700
O671        O  0.57463251  0.99813102  0.81322181    -0.84400
O672        O  0.95548931  0.99837537  0.81551416    -0.84100
O673        O  0.95583648  0.49998757  0.13508116    -0.84500
O674        O  0.52107245  0.09795671  0.06106178    -0.84800
O675        O  0.02177163  0.09560192  0.88514335    -0.86100
Zr676      Zr  0.51568905  0.49861750  0.09883031     2.83100
Zr677      Zr  0.51455945  0.99817451  0.85459361     2.83500
Zr678      Zr  0.58041234  0.49370276  0.97597436     2.84100
Zr679      Zr  0.94881673  0.50481460  0.97587564     2.83400
Zr680      Zr  0.51816250  0.06609161  0.97456816     2.84200
O681        O  0.98522769  0.03461385  0.91355055    -1.06700
O682        O  0.55125671  0.03275854  0.03269910    -1.06200
C683        C  0.52076878  0.09168569  0.11357102     1.08500
C684        C  0.01935558  0.08819448  0.83304915     1.11100
C685        C  0.60704648  0.49537754  0.11344693     1.08600
C686        C  0.92508303  0.50123540  0.11462068     1.09000
C687        C  0.92485031  0.99972640  0.83674338     1.08600
C688        C  0.60564373  0.99786552  0.83304120     1.08100
C689        C  0.60239889  0.08260018  0.96750119     1.08600
C690        C  0.93833618  0.09021900  0.97505951     1.08100
H691        H  0.56333743  0.04542354  0.89088906     0.34700
O692        O  0.54912646  0.03158427  0.91376946    -1.27800
H693        H  0.97205577  0.05153235  0.05449869     0.34800
O694        O  0.98578625  0.03622744  0.03288222    -1.29200
N695        N  0.77821036  0.20321214  0.06599107    -0.34700
N696        N  0.81820225  0.26248637  0.09390728    -0.55300
N697        N  0.75876696  0.30386021  0.10428648    -0.34700
N698        N  0.71955558  0.24407236  0.07639490    -0.55300
C699        C  0.80848440  0.19378441  0.04619774     0.28900
C700        C  0.75522141  0.18311041  0.04093356     0.28900
C701        C  0.78269353  0.32775776  0.10087221     0.28800
C702        C  0.72997677  0.31778454  0.08572144     0.28800
C703        C  0.84312559  0.23982507  0.08778568     0.37500
C704        C  0.83274995  0.29113947  0.11214281     0.37500
C705        C  0.70452980  0.21394017  0.07112349     0.37500
C706        C  0.69483989  0.26648551  0.08527869     0.37500
C707        C  0.80470482  0.16637125  0.01020549    -0.20000
C708        C  0.77106536  0.15961826  0.00705065    -0.20000
C709        C  0.76847862  0.35775292  0.08359370    -0.20000
C710        C  0.73522989  0.35137700  0.07364590    -0.20000
C711        C  0.87359639  0.25375248  0.10364193    -0.21100
C712        C  0.86701491  0.28629297  0.11929867    -0.21100
C713        C  0.67017168  0.21700571  0.07917715    -0.21100
C714        C  0.66399461  0.25050925  0.08762868    -0.21100
C715        C  0.83946257  0.20880388  0.06005970    -0.16400
C716        C  0.72028748  0.18589284  0.04700160    -0.16400
C717        C  0.69915333  0.30102250  0.07883545    -0.16400
C718        C  0.81729645  0.32282663  0.10936919    -0.16400
H719        H  0.82400052  0.15287988  0.98747785     0.16500
H720        H  0.75956086  0.14016694  0.98159067     0.16500
H721        H  0.78096797  0.38149858  0.07678087     0.16500
H722        H  0.71715736  0.36934487  0.05827412     0.16500
H723        H  0.89820412  0.24228773  0.10104625     0.14800
H724        H  0.88564110  0.30497276  0.13058631     0.14800
H725        H  0.65131244  0.19756850  0.07498897     0.14800
H726        H  0.63949844  0.26209430  0.09145298     0.14800
H727        H  0.77374399  0.22087436  0.09741619     0.28000
H728        H  0.76177197  0.27975765  0.11981704     0.28000
C729        C  0.51892633  0.25027344  0.23047820    -0.00600
C730        C  0.76625811  0.49930181  0.22650643    -0.00600
C731        C  0.51749503  0.24693018  0.72642413    -0.00600
C732        C  0.76330213  0.50065313  0.72337052    -0.00600
C733        C  0.63826345  0.49581475  0.14773384    -0.16600
C734        C  0.66787157  0.49608063  0.16391385     0.07400
C735        C  0.70371580  0.49652219  0.17847800     0.09300
C736        C  0.73350209  0.49728882  0.19375106    -0.17500
C737        C  0.89443487  0.49956579  0.14985963    -0.16600
C738        C  0.86486439  0.49863796  0.16588389     0.07400
C739        C  0.82896514  0.49815886  0.17954866     0.09300
C740        C  0.79906805  0.49828854  0.19402832    -0.17500
C741        C  0.51783924  0.28260793  0.19740467    -0.16600
C742        C  0.51714125  0.31216977  0.18179743     0.07400
C743        C  0.51624213  0.34778181  0.16698384     0.09300
C744        C  0.51525690  0.37716200  0.15055237    -0.17500
C745        C  0.51966714  0.21747533  0.19739395    -0.16600
C746        C  0.52034886  0.18776804  0.18145567     0.07400
C747        C  0.52095112  0.15207503  0.16593873     0.09300
C748        C  0.52113801  0.12262438  0.14877516    -0.17500
C749        C  0.67206575  0.31924580  0.05393030    -0.16600
C750        C  0.65251109  0.33591920  0.02844442     0.07400
C751        C  0.63196866  0.35855776  0.00048497     0.09300
C752        C  0.61427928  0.38054022  0.98394593    -0.17500
C753        C  0.89776384  0.40249992  0.01050153    -0.16600
C754        C  0.87792435  0.38740854  0.03787147     0.07400
C755        C  0.85689072  0.36957667  0.07329454     0.09300
C756        C  0.83895589  0.35053087  0.09727617    -0.17500
C757        C  0.91655928  0.11802724  0.98200979    -0.16600
C758        C  0.90302508  0.14352304  0.99608433     0.07400
C759        C  0.88754333  0.17182700  0.01918143     0.09300
C760        C  0.86886768  0.19180373  0.04004100    -0.17500
C761        C  0.69913279  0.16190105  0.01874569    -0.16600
C762        C  0.67869188  0.14449435  0.99593285     0.07400
C763        C  0.65211708  0.12486728  0.97595954     0.09300
C764        C  0.62875454  0.10661950  0.96750998    -0.17500
C765        C  0.89371451  0.99889880  0.80210369    -0.16600
C766        C  0.86401472  0.99885845  0.78616587     0.07400
C767        C  0.82804859  0.99916595  0.77193147     0.09300
C768        C  0.79822278  0.99934720  0.75656574    -0.17500
C769        C  0.63631333  0.99829844  0.79718990    -0.16600
C770        C  0.66600318  0.99862402  0.78106709     0.07400
C771        C  0.70212273  0.99883289  0.76752896     0.09300
C772        C  0.73225016  0.99889068  0.75365662    -0.17500
C773        C  0.51382391  0.11895294  0.80038888    -0.16600
C774        C  0.51460406  0.14846940  0.78488120     0.07400
C775        C  0.01798052  0.18409198  0.77206073     0.09300
C776        C  0.51708035  0.21414550  0.75821593    -0.17500
C777        C  0.51701736  0.27953182  0.76014914    -0.16600
C778        C  0.51601218  0.30931137  0.77582144     0.07400
C779        C  0.01520702  0.34508374  0.79249609     0.09300
C780        C  0.51309563  0.37489946  0.80628698    -0.17500
C781        C  0.88893970  0.24770308  0.65430009    -0.16600
C782        C  0.91855568  0.24821220  0.67006941     0.07400
C783        C  0.95450190  0.24827687  0.68317469     0.09300
C784        C  0.98444130  0.24800004  0.69727674    -0.17500
C785        C  0.64513049  0.24963556  0.64665453    -0.16600
C786        C  0.61562755  0.24842318  0.66296142     0.07400
C787        C  0.57993134  0.24750768  0.67797609     0.09300
C788        C  0.55026215  0.24709411  0.69368941    -0.17500
C789        C  0.76478383  0.12628133  0.64387262    -0.16600
C790        C  0.76540976  0.09663207  0.65929775     0.07400
C791        C  0.76593336  0.06083345  0.67357993     0.09300
C792        C  0.76610413  0.03118553  0.68912221    -0.17500
C793        C  0.76791238  0.37070212  0.65488721    -0.16600
C794        C  0.76634764  0.40064043  0.66906878     0.07400
C795        C  0.76494087  0.43684589  0.68009705     0.09300
C796        C  0.76405404  0.46706760  0.69276624    -0.17500
C797        C  0.86475883  0.12963646  0.50233597    -0.16600
C798        C  0.88020385  0.10695963  0.52275901     0.07400
C799        C  0.89906470  0.08261214  0.55088221     0.09300
C800        C  0.91884960  0.06454531  0.57359779    -0.17500
C801        C  0.65107841  0.15160003  0.49537981    -0.16600
C802        C  0.63149576  0.13125326  0.51253074     0.07400
C803        C  0.61060546  0.10699600  0.53660314     0.09300
C804        C  0.59288538  0.08588993  0.55656930    -0.17500
C805        C  0.67376530  0.37218421  0.49842089    -0.16600
C806        C  0.65762890  0.39498601  0.51765683     0.07400
C807        C  0.63813374  0.41892804  0.54631126     0.09300
C808        C  0.61834247  0.43647245  0.57069933    -0.17500
C809        C  0.94602289  0.40964013  0.59284673    -0.16600
C810        C  0.92811132  0.38849267  0.57267560     0.07400
C811        C  0.90679562  0.36574577  0.54486273     0.09300
C812        C  0.88707861  0.34723081  0.52232505    -0.17500
C813        C  0.64851759  0.25528538  0.30203335    -0.16600
C814        C  0.61864934  0.25419041  0.28715501     0.07400
C815        C  0.58241034  0.25274121  0.27523051     0.09300
C816        C  0.55221708  0.25152542  0.26209759    -0.17500
C817        C  0.89204778  0.24920042  0.30885028    -0.16600
C818        C  0.92159775  0.25016753  0.29346213     0.07400
C819        C  0.95723337  0.25114100  0.27962175     0.09300
C820        C  0.98671891  0.25181639  0.26375625    -0.17500
C821        C  0.77171732  0.37435567  0.31208381    -0.16600
C822        C  0.77006330  0.40376241  0.29599403     0.07400
C823        C  0.76823303  0.43918354  0.28036864     0.09300
C824        C  0.76698431  0.46832234  0.26290500    -0.17500
C825        C  0.76777393  0.13063714  0.29932375    -0.16600
C826        C  0.76798566  0.10087338  0.28340398     0.07400
C827        C  0.76793871  0.06475145  0.27012549     0.09300
C828        C  0.76782446  0.03464929  0.25597861    -0.17500
O829        O  0.76730333  0.69132596  0.30772409    -0.84600
O830        O  0.76630630  0.68742096  0.62642058    -0.84800
O831        O  0.81676129  0.65151300  0.47301353    -0.86500
O832        O  0.71045346  0.65818792  0.47333110    -0.85200
O833        O  0.67214211  0.70103677  0.47491898    -0.84800
O834        O  0.85966400  0.68959727  0.47838411    -0.86200
O835        O  0.76424952  0.65088792  0.55124708    -0.84600
O836        O  0.76462752  0.65342144  0.37950716    -0.84200
Zr837      Zr  0.76534138  0.68353908  0.46696095     2.84300
O838        O  0.73386436  0.71784195  0.52694942    -1.06200
O839        O  0.80047875  0.71486641  0.40893660    -1.06900
C840        C  0.76577352  0.66058240  0.32752356     1.08500
C841        C  0.76503821  0.65704143  0.60397870     1.08400
C842        C  0.84767513  0.65961683  0.48004043     1.11400
C843        C  0.68058895  0.67001516  0.47787248     1.09200
H844        H  0.81288396  0.69902175  0.55060464     0.34800
O845        O  0.79956422  0.71407689  0.52842262    -1.27200
H846        H  0.71878354  0.70503167  0.38692939     0.34400
O847        O  0.73384918  0.71869741  0.40912895    -1.28800
O848        O  0.76909484  0.80824541  0.63210859    -0.84600
O849        O  0.76866576  0.81196684  0.31427326    -0.86100
O850        O  0.86599263  0.74479649  0.55700634    -0.84700
O851        O  0.66990646  0.75083107  0.55461504    -0.84700
O852        O  0.67134954  0.75421156  0.38366629    -0.84400
O853        O  0.86645627  0.74472338  0.38484624    -0.84300
O854        O  0.82820163  0.83963575  0.48568237    -0.84600
O855        O  0.72107667  0.84643389  0.48180264    -0.84100
O856        O  0.86623729  0.79656263  0.48369508    -0.85200
O857        O  0.67775264  0.80865087  0.47981618    -0.84300
O858        O  0.82831036  0.74701420  0.62996396    -0.84700
O859        O  0.82931321  0.74925972  0.31150409    -0.84400
O860        O  0.70873509  0.75177610  0.31038590    -0.84100
O861        O  0.70690256  0.74705373  0.62815598    -0.84500
O862        O  0.77313874  0.84600815  0.56025826    -0.84800
O863        O  0.77232285  0.84842223  0.38932639    -0.86100
Zr864      Zr  0.76794205  0.74810462  0.59100866     2.83100
Zr865      Zr  0.76895871  0.75096516  0.34980202     2.83500
Zr866      Zr  0.83486528  0.74520247  0.47070469     2.84100
Zr867      Zr  0.70262736  0.75327499  0.46972194     2.83400
Zr868      Zr  0.77276039  0.81528591  0.47326068     2.84200
O869        O  0.73744177  0.78539740  0.41224958    -1.06700
O870        O  0.80304434  0.77929111  0.53068621    -1.06200
C871        C  0.77104098  0.83900312  0.61224884     1.08500
C872        C  0.77004027  0.84242806  0.33665390     1.11100
C873        C  0.85905859  0.74593485  0.60931994     1.08600
C874        C  0.67624836  0.74824654  0.60698256     1.09000
C875        C  0.67807098  0.75289682  0.33131279     1.08600
C876        C  0.85984546  0.74692058  0.33254970     1.08100
C877        C  0.85800082  0.82751546  0.49016744     1.08600
C878        C  0.68996713  0.83841007  0.48522368     1.08100
H879        H  0.81975073  0.79554344  0.39189388     0.34700
O880        O  0.80449046  0.78148296  0.41248327    -1.27800
H881        H  0.72377121  0.79808872  0.55396447     0.34800
O882        O  0.73739981  0.78356757  0.53076204    -1.29200
N883        N  0.02657029  0.94750413  0.61473875    -0.34700
N884        N  0.57158979  0.51138073  0.61356350    -0.55300
N885        N  0.01217874  0.55687915  0.61984325    -0.34700
N886        N  0.96894625  0.49798926  0.61761073    -0.55300
C887        C  0.55629270  0.92810505  0.60962098     0.28900
C888        C  0.00199667  0.92516509  0.60243733     0.28900
C889        C  0.53935380  0.57746751  0.59936069     0.28800
C890        C  0.98242354  0.57190109  0.60941407     0.28800
C891        C  0.59250296  0.97882034  0.61732229     0.37500
C892        C  0.58762881  0.54075139  0.62222896     0.37500
C893        C  0.95275738  0.96123775  0.62484791     0.37500
C894        C  0.94498748  0.52194884  0.61893619     0.36500
C895        C  0.55121102  0.89477269  0.59398002    -0.20000
C896        C  0.01581296  0.89682290  0.57727097    -0.20000
C897        C  0.52595891  0.60497130  0.57209160    -0.20000
C898        C  0.98775031  0.60543129  0.59680663    -0.20000
C899        C  0.62344920  0.99430943  0.62384325    -0.21100
C900        C  0.62157973  0.53509929  0.63132413    -0.21100
C901        C  0.91876037  0.96624942  0.63482663    -0.21100
C902        C  0.91353923  0.50745714  0.62409844    -0.21100
C903        C  0.58788019  0.94410327  0.61045050    -0.16400
C904        C  0.96729753  0.93004381  0.61120591    -0.16400
C905        C  0.95066932  0.55614408  0.60820308    -0.16400
C906        C  0.57394225  0.57182249  0.60704212    -0.16400
H907        H  0.56990893  0.87634165  0.58196253     0.16500
H908        H  0.00282481  0.87455169  0.56255883     0.16500
H909        H  0.53935629  0.62587476  0.55411396     0.16500
H910        H  0.96913612  0.62428914  0.58709611     0.16500
H911        H  0.64742055  0.98232946  0.63125767     0.14800
H912        H  0.64115092  0.55376302  0.63630429     0.14800
H913        H  0.89977253  0.94722962  0.64124775     0.14800
H914        H  0.88945375  0.52006522  0.62457214     0.14800
H915        H  0.02378058  0.96979347  0.63732517     0.28000
H916        H  0.01582948  0.53254747  0.63318359     0.28000
O917        O  0.51450549  0.93689055  0.81780371    -0.84600
O918        O  0.51858798  0.94053309  0.13473735    -0.84800
O919        O  0.56569556  0.90463512  0.97585776    -0.86500
O920        O  0.95931511  0.91000429  0.98888568    -0.85200
O921        O  0.92097742  0.95283294  0.98930324    -0.84800
O922        O  0.60811465  0.94340680  0.97334849    -0.86200
O923        O  0.51546668  0.90283049  0.06137434    -0.84600
O924        O  0.51168979  0.90074926  0.89197731    -0.84200
Zr925      Zr  0.51342919  0.93435270  0.97613650     2.84300
O926        O  0.98311198  0.97114363  0.03334196    -1.06200
O927        O  0.54737569  0.96493705  0.91510244    -1.06900
C928        C  0.51329380  0.90652794  0.83947032     1.08500
C929        C  0.51734771  0.90969057  0.11372901     1.08400
C930        C  0.59663676  0.91329783  0.97566510     1.11400
C931        C  0.92967359  0.92205591  0.99496800     1.09200
H932        H  0.56355336  0.95221467  0.05443037     0.34800
O933        O  0.54916702  0.96669132  0.03297125    -1.27200
H934        H  0.96621657  0.95336958  0.89506799     0.34400
O935        O  0.98138353  0.96779481  0.91570286    -1.28800
O936        O  0.51802948  0.55921526  0.13766690    -0.84600
O937        O  0.51388746  0.55779799  0.81900926    -0.86100
O938        O  0.61538767  0.00059122  0.05586920    -0.84700
O939        O  0.91963863  0.00584839  0.06002371    -0.84700
O940        O  0.91613132  0.50525891  0.89086575    -0.84400
O941        O  0.61145716  0.49459490  0.88944867    -0.84300
O942        O  0.57316544  0.58876035  0.98354204    -0.84600
O943        O  0.96938818  0.59757749  0.98073237    -0.84100
O944        O  0.61129567  0.54574179  0.98386799    -0.85200
O945        O  0.92526706  0.56082845  0.98315128    -0.84300
O946        O  0.57928780  0.00162111  0.13099333    -0.84700
O947        O  0.57350453  0.49774027  0.81710176    -0.84400
O948        O  0.95270124  0.49969973  0.81684233    -0.84100
O949        O  0.95714614  0.00257570  0.13306523    -0.84500
O950        O  0.52037445  0.59583917  0.06402753    -0.84800
O951        O  0.02053793  0.59594393  0.88828322    -0.86100
Zr952      Zr  0.51825100  0.00094150  0.09592051     2.83100
Zr953      Zr  0.51337069  0.49769170  0.85730225     2.83500
Zr954      Zr  0.58212801  0.99831215  0.97179952     2.84100
Zr955      Zr  0.95088453  0.00450866  0.97415220     2.83400
Zr956      Zr  0.51815400  0.56394948  0.97823811     2.84200
O957        O  0.98357194  0.53460380  0.91535057    -1.06700
O958        O  0.54973764  0.52895523  0.03584940    -1.06200
C959        C  0.51955342  0.58963962  0.11640804     1.08500
C960        C  0.01753902  0.58895112  0.83608460     1.11100
C961        C  0.60954250  0.00148318  0.10856992     1.08600
C962        C  0.92648658  0.00393416  0.11221248     1.09000
C963        C  0.92224764  0.50253860  0.83835206     1.08600
C964        C  0.60436277  0.49663551  0.83729617     1.08100
C965        C  0.60301001  0.57686630  0.98679229     1.08600
C966        C  0.93814784  0.59040933  0.98551945     1.08100
H967        H  0.56397948  0.54289420  0.89647393     0.34700
O968        O  0.54905175  0.52904254  0.91806643    -1.27800
H969        H  0.97185023  0.55068334  0.05734683     0.34800
O970        O  0.98488062  0.53532142  0.03466429    -1.29200
N971        N  0.77174382  0.69961454  0.10029544    -0.34700
N972        N  0.81558756  0.75720240  0.10621489    -0.55300
N973        N  0.76063864  0.80269284  0.09453145    -0.34700
N974        N  0.71669665  0.74557546  0.09340472    -0.55300
C975        C  0.80098278  0.68653018  0.08182030     0.28900
C976        C  0.74702960  0.67989546  0.07975805     0.28900
C977        C  0.78682175  0.82247742  0.08155805     0.28800
C978        C  0.73360374  0.81519215  0.06812871     0.28800
C979        C  0.83799625  0.73240675  0.11399402     0.37500
C980        C  0.83168646  0.78616577  0.11773541     0.37500
C981        C  0.69959388  0.71707732  0.10242290     0.37500
C982        C  0.69396154  0.77049784  0.09358774     0.37500
C983        C  0.79481728  0.65764972  0.05041690    -0.20000
C984        C  0.76063697  0.65340852  0.04925790    -0.20000
C985        C  0.77625760  0.84847667  0.04764743    -0.20000
C986        C  0.74252393  0.84374760  0.03886939    -0.20000
C987        C  0.86832795  0.74545412  0.13238265    -0.21100
C988        C  0.86424265  0.77970602  0.13519365    -0.21100
C989        C  0.66586565  0.72407642  0.11125910    -0.21100
C990        C  0.66224828  0.75815006  0.10520683    -0.21100
C991        C  0.83295552  0.69965472  0.09390868    -0.16400
C992        C  0.71259417  0.68553388  0.08790107    -0.16400
C993        C  0.70096332  0.80227914  0.07247101    -0.16400
C994        C  0.81980860  0.81745825  0.10014312    -0.16400
H995        H  0.81295736  0.64145015  0.02997617     0.16500
H996        H  0.74734206  0.63347730  0.02755851     0.16500
H997        H  0.79129584  0.86850299  0.03048542     0.16500
H998        H  0.72645793  0.85959973  0.01400560     0.16500
H999        H  0.89143761  0.73188642  0.13970929     0.14800
H1000       H  0.88370184  0.79786613  0.14469120     0.14800
H1001       H  0.64565953  0.70621785  0.11656424     0.14800
H1002       H  0.63879456  0.77189353  0.10550495     0.14800
H1003       H  0.76884913  0.71951081  0.12852821     0.28000
H1004       H  0.76078608  0.78351656  0.12373982     0.28000
C1005       C  0.51824670  0.75008757  0.22362355    -0.00600
C1006       C  0.76780993  0.00142324  0.22374965    -0.00600
C1007       C  0.51739073  0.74652675  0.72567330    -0.00600
C1008       C  0.76580251  0.99883031  0.72254687    -0.00600
C1009       C  0.64076778  0.00208911  0.14245304    -0.16600
C1010       C  0.67026619  0.00207196  0.15878877     0.07400
C1011       C  0.70589069  0.00170348  0.17399624     0.09300
C1012       C  0.73543794  0.00137476  0.19015587    -0.17500
C1013       C  0.89574778  0.00289791  0.14709618    -0.16600
C1014       C  0.86614783  0.00206598  0.16276486     0.07400
C1015       C  0.83031925  0.00135087  0.17638800     0.09300
C1016       C  0.80053740  0.00109390  0.19123045    -0.17500
C1017       C  0.51773129  0.78311454  0.19174307    -0.16600
C1018       C  0.51786626  0.81305953  0.17745285     0.07400
C1019       C  0.51812186  0.84907762  0.16395968     0.09300
C1020       C  0.51808325  0.87876892  0.14839074    -0.17500
C1021       C  0.51896026  0.71728071  0.19050671    -0.16600
C1022       C  0.51946841  0.68713791  0.17688809     0.07400
C1023       C  0.51984899  0.65090061  0.16516118     0.09300
C1024       C  0.51990783  0.62090771  0.15076976    -0.17500
C1025       C  0.67430750  0.82114167  0.04822056    -0.16600
C1026       C  0.65558596  0.83957545  0.02469708     0.07400
C1027       C  0.63669027  0.86428130  0.99888520     0.09300
C1028       C  0.61986551  0.88700521  0.98304476    -0.17500
C1029       C  0.90475024  0.89984367  0.01435174    -0.16600
C1030       C  0.88528541  0.88244216  0.03838405     0.07400
C1031       C  0.86338510  0.86209264  0.06798114     0.09300
C1032       C  0.84395310  0.84285756  0.08791946    -0.17500
C1033       C  0.91656607  0.61741777  0.00027058    -0.16600
C1034       C  0.90039447  0.63916460  0.02224743     0.07400
C1035       C  0.88124942  0.66249241  0.05244639     0.09300
C1036       C  0.86149399  0.68051766  0.07558599    -0.17500
C1037       C  0.68956871  0.66063458  0.06765900    -0.16600
C1038       C  0.67089770  0.64135055  0.04504651     0.07400
C1039       C  0.64898987  0.61943761  0.01764487     0.09300
C1040       C  0.62889497  0.60017107  0.99879752    -0.17500
C1041       C  0.89103980  0.50237483  0.80386190    -0.16600
C1042       C  0.86144932  0.50241283  0.78742704     0.07400
C1043       C  0.82561422  0.50233790  0.77247690     0.09300
C1044       C  0.79586270  0.50194260  0.75684565    -0.17500
C1045       C  0.63497032  0.49824393  0.80167199    -0.16600
C1046       C  0.66443749  0.49949806  0.78491284     0.07400
C1047       C  0.70027168  0.50065056  0.77023953     0.09300
C1048       C  0.73014877  0.50114631  0.75532087    -0.17500
C1049       C  0.51514217  0.61919747  0.80542679    -0.16600
C1050       C  0.51543203  0.64862055  0.78896137     0.07400
C1051       C  0.01786011  0.68493213  0.77019479     0.09300
C1052       C  0.51684313  0.71393922  0.75852127    -0.17500
C1053       C  0.51712636  0.77944814  0.75890953    -0.16600
C1054       C  0.51628303  0.80928870  0.77460569     0.07400
C1055       C  0.01697569  0.84601128  0.78792769     0.09300
C1056       C  0.51415989  0.87502169  0.80525442    -0.17500
C1057       C  0.88977124  0.74621219  0.64465987    -0.16600
C1058       C  0.91930978  0.74656163  0.66104626     0.07400
C1059       C  0.95513448  0.74707323  0.67547662     0.09300
C1060       C  0.98491788  0.74748260  0.69068119    -0.17500
C1061       C  0.64510064  0.74670049  0.64185513    -0.16600
C1062       C  0.61566964  0.74609459  0.65938124     0.07400
C1063       C  0.57999063  0.74595773  0.67609149     0.09300
C1064       C  0.55035527  0.74614827  0.69272717    -0.17500
C1065       C  0.76462472  0.62605145  0.63789888    -0.16600
C1066       C  0.76419985  0.59674311  0.65463853     0.07400
C1067       C  0.76368974  0.56136040  0.67076759     0.09300
C1068       C  0.76338051  0.53215811  0.68809823    -0.17500
C1069       C  0.77026138  0.86975467  0.64788143    -0.16600
C1070       C  0.76938387  0.89953707  0.66341952     0.07400
C1071       C  0.76807884  0.93562354  0.67630024     0.09300
C1072       C  0.76689621  0.96568086  0.69034679    -0.17500
C1073       C  0.86967807  0.63356626  0.49774850    -0.16600
C1074       C  0.88591237  0.61344088  0.52319905     0.07400
C1075       C  0.90459383  0.59215386  0.55778370     0.09300
C1076       C  0.92329736  0.57524420  0.58502861    -0.17500
C1077       C  0.65507260  0.64729823  0.49396222    -0.16600
C1078       C  0.63552576  0.63067680  0.51957828     0.07400
C1079       C  0.61467093  0.61275492  0.55545191     0.09300
C1080       C  0.59669860  0.59587140  0.58369381    -0.17500
C1081       C  0.66784872  0.86439912  0.50276069    -0.16600
C1082       C  0.65218973  0.88520717  0.52812041     0.07400
C1083       C  0.63445238  0.90746958  0.56274889     0.09300
C1084       C  0.61586977  0.92493323  0.58959731    -0.17500
C1085       C  0.94486711  0.90421190  0.59117533    -0.16600
C1086       C  0.92625940  0.88578796  0.56606624     0.07400
C1087       C  0.90408105  0.86653652  0.53342241     0.09300
C1088       C  0.88377161  0.84973526  0.50886856    -0.17500
C1089       C  0.64717418  0.75219974  0.29651314    -0.16600
C1090       C  0.61737486  0.75155371  0.28155640     0.07400
C1091       C  0.58125269  0.75092512  0.26940359     0.09300
C1092       C  0.55117366  0.75052290  0.25589066    -0.17500
C1093       C  0.89063907  0.74724192  0.29771148    -0.16600
C1094       C  0.92020150  0.74774142  0.28180831     0.07400
C1095       C  0.95602198  0.74878100  0.26816177     0.09300
C1096       C  0.98582439  0.75000425  0.25354573    -0.17500
C1097       C  0.76882197  0.87374415  0.30298946    -0.16600
C1098       C  0.76813204  0.90333102  0.28700352     0.07400
C1099       C  0.76768056  0.93914573  0.27231925     0.09300
C1100       C  0.76756926  0.96885242  0.25683494    -0.17500
C1101       C  0.76546668  0.62998572  0.29186522    -0.16600
C1102       C  0.76532536  0.60005543  0.27749540     0.07400
C1103       C  0.76544350  0.56377311  0.26710535     0.09300
C1104       C  0.76574753  0.53338642  0.25555482    -0.17500
loop_ 
_geom_bond_atom_site_label_1 
_geom_bond_atom_site_label_2 
_geom_bond_distance 
_geom_bond_site_symmetry_2 
_ccdc_geom_bond_type 
O1          Zr37   2.582       .  S
O1           C12   1.322       .  A
O2          Zr36   2.574       .  S
O2           C13   1.320       .  A
O3           Zr9   2.415       .  S
O3           C14   1.283       .  A
O4           Zr9   2.424       .  S
O4           C15   1.285       .  A
O5          Zr39   2.402       .  S
O5           C15   1.281       .  A
O6          Zr38   2.444       .  S
O6           C14   1.290       .  A
O7           Zr9   2.409       .  S
O7           C13   1.284       .  A
O8           Zr9   2.416       .  S
O8           C12   1.285       .  A
Zr9          O10   2.335       .  S
Zr9          O11   2.345       .  S
Zr9          O19   2.339       .  S
Zr9          O17   2.343       .  S
O10         Zr36   2.369       .  S
O10         Zr39   2.343       .  S
O11         Zr37   2.376       .  S
O11         Zr38   2.344       .  S
C12         C273   1.492       .  S
C13         C237   1.484       .  S
C14         C245   1.430       .  S
C15         C249   1.416       .  S
H16          O17   0.965       .  S
O17         Zr36   2.371       .  S
O17         Zr38   2.343       .  S
H18          O19   0.966       .  S
O19         Zr37   2.382       .  S
O19         Zr39   2.354       .  S
O20         Zr36   2.577       .  S
O20          C43   1.321       .  A
O21         Zr37   2.568       .  S
O21          C44   1.319       .  A
O22         Zr38   2.401       .  S
O22          C45   1.283       .  A
O23         Zr39   2.414       .  S
O23          C46   1.285       .  A
O24         Zr39   2.411       .  S
O24          C47   1.285       .  A
O25         Zr38   2.414       .  S
O25          C48   1.285       .  A
O26         Zr40   2.415       .  S
O26          C49   1.284       .  A
O27         Zr40   2.404       .  S
O27          C50   1.281       .  A
O28         Zr38   2.433       .  S
O28          C49   1.287       .  A
O29         Zr39   2.440       .  S
O29          C50   1.288       .  A
O30         Zr36   2.578       .  S
O30          C45   1.321       .  A
O31         Zr37   2.593       .  S
O31          C48   1.324       .  A
O32         Zr37   2.571       .  S
O32          C47   1.319       .  A
O33         Zr36   2.575       .  S
O33          C46   1.320       .  A
O34         Zr40   2.410       .  S
O34          C43   1.284       .  A
O35         Zr40   2.421       .  S
O35          C44   1.286       .  A
Zr36         O42   2.374       .  S
Zr36         O54   2.373       .  S
Zr37         O41   2.384       .  S
Zr37         O52   2.385       .  S
Zr38         O42   2.342       .  S
Zr38         O52   2.350       .  S
Zr39         O41   2.337       .  S
Zr39         O54   2.332       .  S
Zr40         O41   2.340       .  S
Zr40         O42   2.339       .  S
Zr40         O54   2.344       .  S
Zr40         O52   2.345       .  S
C43         C241   1.485       .  S
C44         C269   1.488       .  S
C45         C229   1.482       .  S
C46         C233   1.486       .  S
C47         C261   1.482       .  S
C48         C265   1.495       .  S
C49         C260   1.428       .  S
C50         C253   1.423       .  S
H51          O52   0.966       .  S
H53          O54   0.965       .  S
N55          C60   1.352       .  A
N55         C611   1.352       .  A
N55          H87   1.040       .  S
N56          C64   1.347       .  A
N56         C339   1.347   1_545  A
N57          C62   1.351       .  A
N57         C613   1.351       .  A
N57          H88   1.040       .  S
N58          C66   1.349   1_565  A
N58         C341   1.346       .  A
C59         N607   1.354       .  A
C59          C67   1.388       .  A
C59          C75   1.413       .  A
C60          C76   1.409       .  A
C60          C68   1.387       .  A
C61         N609   1.350       .  A
C61          C69   1.387       .  A
C61          C78   1.405       .  A
C62          C77   1.408       .  A
C62          C70   1.388       .  A
C63         N332   1.347       .  A
C63          C75   1.403       .  A
C63          C71   1.387       .  A
C64          C78   1.404       .  A
C64          C72   1.389       .  A
C65         N334   1.349       .  A
C65          C73   1.387       .  A
C65          C76   1.406       .  A
C66          C74   1.385   1_545  A
C66          C77   1.405       .  A
C67         C620   1.368       .  A
C67          H79   1.082       .  S
C68         C619   1.371       .  A
C68          H80   1.082       .  S
C69         C622   1.368   1_455  A
C69          H81   1.082       .  S
C70         C621   1.371       .  A
C70          H82   1.082       .  S
C71         C348   1.370       .  A
C71          H83   1.083       .  S
C72         C347   1.372   1_545  A
C72          H84   1.083       .  S
C73         C350   1.371       .  A
C73          H85   1.082       .  S
C74         C349   1.373       .  A
C74          H86   1.082   1_565  S
C75         C256   1.441       .  S
C76         C257   1.444       .  S
C77         C248   1.445       .  S
C78         C252   1.434       .  S
O89        Zr401   2.578       .  S
O89         C100   1.321       .  A
O90        Zr124   2.566       .  S
O90         C101   1.318       .  A
O91         Zr97   2.409       .  S
O91         C102   1.282       .  A
O92        Zr649   2.407       .  S
O92         C103   1.282       .  A
O93        Zr127   2.401       .  S
O93         C103   1.281       .  A
O94        Zr126   2.435       .  S
O94         C102   1.287       .  A
O95         Zr97   2.423   1_554  S
O95         C101   1.286       .  A
O96         Zr97   2.399       .  S
O96         C100   1.283       .  A
Zr97        O644   2.417   1_455  S
Zr97         O99   2.345       .  S
Zr97        O105   2.338   1_556  S
Zr97        O650   2.330   1_456  S
Zr97        O659   2.350   1_455  S
O98        Zr127   2.347   1_554  S
O98        Zr649   2.332   1_554  S
O98        Zr676   2.373       .  S
O99        Zr126   2.334       .  S
O99        Zr401   2.381       .  S
C100        C228   1.481       .  S
C101        C192   1.486       .  S
C102        C200   1.424       .  S
C103        C201   1.408   1_556  S
H104        O105   0.965       .  S
O105       Zr124   2.374       .  S
O105       Zr126   2.336   1_554  S
H106        O107   0.966       .  S
O107       Zr127   2.350       .  S
O107       Zr649   2.343       .  S
O107       Zr953   2.382       .  S
O108       Zr400   2.585       .  S
O108        C131   1.322       .  A
O109       Zr125   2.562   1_545  S
O109        C684   1.318       .  A
O110       Zr126   2.411   1_554  S
O110        C133   1.285       .  A
O111       Zr127   2.409   1_554  S
O111        C134   1.284       .  A
O112       Zr403   2.412       .  S
O112        C135   1.285       .  A
O113       Zr402   2.404       .  S
O113        C136   1.283       .  A
O114       Zr128   2.405       .  S
O114        C137   1.282       .  A
O115       Zr680   2.409       .  S
O115        C138   1.282       .  A
O116       Zr402   2.419   1_545  S
O116        C137   1.284       .  A
O117       Zr403   2.425       .  S
O117        C138   1.285       .  A
O118       Zr124   2.572       .  S
O118        C133   1.319       .  A
O119       Zr125   2.575       .  S
O119        C136   1.320       .  A
O120       Zr677   2.561       .  S
O120        C135   1.317   1_565  A
O121       Zr676   2.582       .  S
O121        C134   1.322       .  A
O122       Zr128   2.417   1_554  S
O122        C131   1.285       .  A
O123       Zr680   2.410       .  S
O123        C132   1.284       .  A
Zr124       O384   2.577       .  S
Zr124       O673   2.576   1_455  S
Zr124       O650   2.370   1_455  S
Zr124       O406   2.365       .  S
Zr124       O970   2.375   1_455  S
Zr125       O365   2.573       .  S
Zr125       O672   2.588   1_455  S
Zr125       O140   2.389   1_565  S
Zr125       O375   2.375       .  S
Zr125       O935   2.382   1_455  S
Zr125       O681   2.378   1_465  S
Zr126       O389   2.410       .  S
Zr126       O392   2.408       .  S
Zr126       O406   2.338   1_556  S
Zr126       O416   2.351       .  S
Zr127       O388   2.421       .  S
Zr127       O393   2.431       .  S
Zr127       O405   2.338       .  S
Zr127       O418   2.339   1_556  S
Zr128       O667   2.388   1_455  S
Zr128       O675   2.409       .  S
Zr128       O130   2.332   1_556  S
Zr128       O140   2.338       .  S
Zr128       O681   2.342   1_455  S
Zr128       O694   2.339   1_456  S
O129       Zr677   2.386   1_545  S
O129       Zr403   2.338       .  S
O129       Zr680   2.343       .  S
O130       Zr400   2.367       .  S
O130       Zr402   2.336   1_544  S
C131        C196   1.490       .  S
C132        O661   1.319       .  A
C132        C773   1.482       .  S
C133        C181   1.484       .  S
C134        C185   1.487       .  S
C135        C213   1.478       .  S
C136        C217   1.481       .  S
C137        C212   1.417   1_556  S
C138        C205   1.418   1_556  S
H139        O140   0.966       .  S
O140       Zr402   2.346   1_545  S
H141        O142   0.965       .  S
O142       Zr952   2.377       .  S
O142       Zr403   2.341   1_554  S
O142       Zr680   2.342   1_554  S
N143        C148   1.351       .  A
N143        C147   1.352       .  A
N143        H175   1.041       .  S
N144        C151   1.346       .  A
N144        C152   1.346       .  A
N145        C150   1.350       .  A
N145        C149   1.346       .  A
N145        H176   1.039       .  S
N146        C153   1.345       .  A
N146        C154   1.348       .  A
C147        C155   1.388       .  A
C147        C163   1.409       .  A
C148        C164   1.408       .  A
C148        C156   1.388       .  A
C149        C157   1.389       .  A
C149        C166   1.405       .  A
C150        C165   1.406       .  A
C150        C158   1.388       .  A
C151        C163   1.400       .  A
C151        C159   1.386       .  A
C152        C166   1.404       .  A
C152        C160   1.388       .  A
C153        C161   1.388       .  A
C153        C164   1.401       .  A
C154        C162   1.384       .  A
C154        C165   1.402       .  A
C155        C156   1.369       .  A
C155        H167   1.082       .  S
C156        H168   1.082       .  S
C157        C158   1.370       .  A
C157        H169   1.082       .  S
C158        H170   1.082       .  S
C159        C160   1.371       .  A
C159        H171   1.083       .  S
C160        H172   1.083       .  S
C161        C162   1.372       .  A
C161        H173   1.083       .  S
C162        H174   1.082       .  S
C163        C208   1.436       .  S
C164        C209   1.434       .  S
C165        C197   1.440       .  S
C166        C204   1.426       .  S
C177        C189   1.522       .  S
C177        C193   1.522       .  S
C177        C264   1.518       .  S
C177        C820   1.513   1_455  S
C178        C184   1.520       .  S
C178        C188   1.523       .  S
C178        C272   1.525       .  S
C178        C552   1.522       .  S
C179        C224   1.516       .  S
C179        C225   1.515       .  S
C179        C236   1.520       .  S
C179        C784   1.520   1_455  S
C180        C244   1.520       .  S
C180        C492   1.525       .  S
C180        C496   1.522       .  S
C180        C516   1.525       .  S
C181        C182   1.238       .  T
C182        C183   1.465       .  S
C183        C184   1.239       .  T
C185        C186   1.240       .  T
C186        C187   1.468       .  S
C187        C188   1.241       .  T
C189        C190   1.240       .  T
C190        C191   1.466       .  S
C191        C192   1.239       .  T
C193        C194   1.240       .  T
C194        C195   1.468       .  S
C195        C196   1.241       .  T
C197        C198   1.200       .  T
C198        C199   1.402       .  S
C199        C200   1.199   1_554  T
C201        C202   1.190       .  T
C202        C203   1.387       .  S
C203        C204   1.191       .  T
C205        C206   1.196       .  T
C206        C207   1.397       .  S
C207        C208   1.197       .  T
C209        C210   1.196       .  T
C210        C211   1.396       .  S
C211        C212   1.196       .  T
C213        C214   1.234       .  T
C214        C215   1.459       .  S
C215        C216   1.235       .  T
C216        C456   1.514       .  S
C217        C218   1.236       .  T
C218        C219   1.462       .  S
C219        C220   1.237   1_565  T
C220        C456   1.516       .  S
C221        C684   1.479       .  S
C221        C222   1.235       .  T
C222        C775   1.461       .  S
C223        C776   1.239       .  T
C223        C774   1.464       .  S
C224        C775   1.237       .  T
C225        C226   1.237       .  T
C226        C779   1.462       .  S
C227        C780   1.240       .  T
C227        C778   1.468       .  S
C228        C779   1.236       .  T
C229        C230   1.237       .  T
C230        C231   1.463       .  S
C231        C232   1.238       .  T
C232        C731   1.517       .  S
C233        C234   1.239       .  T
C234        C235   1.466       .  S
C235        C236   1.240       .  T
C237        C238   1.238       .  T
C238        C239   1.465       .  S
C239        C240   1.239       .  T
C240        C456   1.519       .  S
C241        C242   1.239       .  T
C242        C243   1.466       .  S
C243        C244   1.239       .  T
C245        C246   1.203       .  T
C246        C247   1.407       .  S
C247        C248   1.203       .  T
C249        C250   1.194       .  T
C250        C251   1.394       .  S
C251        C252   1.195       .  T
C253        C254   1.199       .  T
C254        C255   1.400       .  S
C255        C256   1.199       .  T
C257        C258   1.202       .  T
C258        C259   1.405       .  S
C259        C260   1.202       .  T
C261        C262   1.236       .  T
C262        C263   1.462       .  S
C263        C264   1.237       .  T
C265        C266   1.245       .  T
C266        C267   1.476       .  S
C267        C268   1.246       .  T
C268        C729   1.531       .  S
C269        C270   1.240       .  T
C270        C271   1.469       .  S
C271        C272   1.242       .  T
C273        C274   1.242       .  T
C274        C275   1.471       .  S
C275        C276   1.243       .  T
C276        C454   1.525   1_545  S
O277       Zr313   2.580       .  S
O277        C288   1.321       .  A
O278       Zr312   2.582       .  S
O278        C289   1.322       .  A
O279       Zr285   2.419       .  S
O279        C290   1.284       .  A
O280       Zr285   2.414       .  S
O280        C291   1.284       .  A
O281       Zr315   2.403       .  S
O281        C291   1.281       .  A
O282       Zr314   2.426       .  S
O282        C290   1.286       .  A
O283       Zr285   2.412       .  S
O283        C289   1.284       .  A
O284       Zr285   2.412       .  S
O284        C288   1.284       .  A
Zr285       O286   2.337       .  S
Zr285       O287   2.345       .  S
Zr285       O295   2.342       .  S
Zr285       O293   2.341       .  S
O286       Zr312   2.368       .  S
O286       Zr315   2.341       .  S
O287       Zr313   2.382       .  S
O287       Zr314   2.341       .  S
C288        C549   1.489       .  S
C289        C513   1.489       .  S
C290        C521   1.424       .  S
C291        C525   1.412       .  S
H292        O293   0.965       .  S
O293       Zr312   2.371       .  S
O293       Zr314   2.338       .  S
H294        O295   0.966       .  S
O295       Zr313   2.380       .  S
O295       Zr315   2.351       .  S
O296       Zr312   2.576       .  S
O296        C319   1.320       .  A
O297       Zr313   2.578       .  S
O297        C320   1.321       .  A
O298       Zr314   2.414       .  S
O298        C321   1.285       .  A
O299       Zr315   2.416       .  S
O299        C322   1.285       .  A
O300       Zr315   2.412       .  S
O300        C323   1.285       .  A
O301       Zr314   2.418       .  S
O301        C324   1.286       .  A
O302       Zr316   2.420       .  S
O302        C325   1.285       .  A
O303       Zr316   2.416       .  S
O303        C326   1.283       .  A
O304       Zr314   2.405       .  S
O304        C325   1.281       .  A
O305       Zr315   2.434       .  S
O305        C326   1.287       .  A
O306       Zr312   2.579       .  S
O306        C321   1.321       .  A
O307       Zr313   2.581       .  S
O307        C324   1.322       .  A
O308       Zr313   2.580       .  S
O308        C323   1.321       .  A
O309       Zr312   2.572       .  S
O309        C322   1.320       .  A
O310       Zr316   2.417       .  S
O310        C319   1.285       .  A
O311       Zr316   2.412       .  S
O311        C320   1.285       .  A
Zr312       O318   2.370       .  S
Zr312       O330   2.378       .  S
Zr313       O317   2.383       .  S
Zr313       O328   2.384       .  S
Zr314       O318   2.340       .  S
Zr314       O328   2.348       .  S
Zr315       O317   2.339       .  S
Zr315       O330   2.336       .  S
Zr316       O317   2.345       .  S
Zr316       O318   2.335       .  S
Zr316       O330   2.345       .  S
Zr316       O328   2.345       .  S
C319        C517   1.486       .  S
C320        C545   1.488       .  S
C321        C505   1.489       .  S
C322        C509   1.487       .  S
C323        C537   1.487       .  S
C324        C541   1.491       .  S
C325        C536   1.417       .  S
C326        C529   1.426       .  S
H327        O328   0.966       .  S
H329        O330   0.965       .  S
N331        C336   1.352       .  A
N331        C887   1.352       .  A
N331        H363   1.041       .  S
N332        C340   1.346       .  A
N333        C338   1.352       .  A
N333        C889   1.352       .  A
N333        H364   1.042       .  S
N334        C342   1.348       .  A
C335        N883   1.354       .  A
C335        C343   1.388       .  A
C335        C351   1.412       .  A
C336        C352   1.407       .  A
C336        C344   1.387       .  A
C337        N885   1.350       .  A
C337        C345   1.388       .  A
C337        C354   1.410       .  A
C338        C353   1.408       .  A
C338        C346   1.388       .  A
C339        C351   1.402       .  A
C339        C347   1.386       .  A
C340        C354   1.406       .  A
C340        C348   1.389       .  A
C341        C349   1.388       .  A
C341        C352   1.403       .  A
C342        C350   1.386       .  A
C342        C353   1.403       .  A
C343        C896   1.370       .  A
C343        H355   1.082       .  S
C344        C895   1.369       .  A
C344        H356   1.083       .  S
C345        C898   1.368   1_455  A
C345        H357   1.083       .  S
C346        C897   1.370       .  A
C346        H358   1.082       .  S
C347        H359   1.083       .  S
C348        H360   1.083       .  S
C349        H361   1.083       .  S
C350        H362   1.083       .  S
C351        C532   1.443       .  S
C352        C533   1.436       .  S
C353        C524   1.441       .  S
C354        C528   1.433       .  S
O365        C376   1.320       .  A
O366       Zr400   2.585   1_565  S
O366        C377   1.323       .  A
O367       Zr373   2.406       .  S
O367        C378   1.281       .  A
O368       Zr925   2.419       .  S
O368        C379   1.284       .  A
O369       Zr403   2.412   1_565  S
O369        C379   1.283       .  A
O370       Zr402   2.428       .  S
O370        C378   1.286       .  A
O371       Zr373   2.410   1_554  S
O371        C377   1.283       .  A
O372       Zr373   2.417       .  S
O372        C376   1.285       .  A
Zr373       O920   2.406   1_455  S
Zr373       O926   2.332   1_456  S
Zr373       O375   2.336       .  S
Zr373       O935   2.345   1_455  S
Zr373       O381   2.343   1_556  S
O374       Zr925   2.328   1_554  S
O374       Zr952   2.367   1_565  S
O374       Zr403   2.338   1_564  S
O375       Zr402   2.341       .  S
C376        C504   1.489       .  S
C377        C468   1.491       .  S
C378        C476   1.420       .  S
C379        C477   1.419   1_556  S
H380        O381   0.966       .  S
O381       Zr400   2.378   1_565  S
O381       Zr402   2.340   1_554  S
H382        O383   0.966       .  S
O383       Zr925   2.339       .  S
O383       Zr677   2.387       .  S
O383       Zr403   2.351   1_565  S
O384        C407   1.321       .  A
O385       Zr401   2.583       .  S
O385        C960   1.322       .  A
O386       Zr402   2.407   1_554  S
O386        C409   1.284   1_565  A
O387       Zr403   2.409   1_554  S
O387        C410   1.284       .  A
O388        C411   1.286       .  A
O389        C412   1.284       .  A
O390       Zr404   2.416       .  S
O390        C413   1.284       .  A
O391       Zr956   2.414       .  S
O391        C414   1.283       .  A
O392        C413   1.282       .  A
O393        C414   1.286       .  A
O394       Zr400   2.591       .  S
O394        C409   1.324       .  A
O395       Zr401   2.578       .  S
O395        C412   1.321       .  A
O396       Zr953   2.576       .  S
O396        C411   1.321       .  A
O397       Zr952   2.580       .  S
O397        C410   1.322       .  A
O398       Zr404   2.409   1_554  S
O398        C407   1.284       .  A
O399       Zr956   2.414       .  S
O399        C408   1.285       .  A
Zr400       O949   2.577   1_455  S
Zr400       O926   2.366   1_445  S
Zr400       O694   2.380   1_455  S
Zr401       O948   2.585   1_455  S
Zr401       O659   2.387   1_455  S
Zr401       O957   2.376   1_455  S
Zr401       O416   2.381       .  S
Zr404       O943   2.410   1_455  S
Zr404       O951   2.413       .  S
Zr404       O957   2.342   1_455  S
Zr404       O406   2.332   1_556  S
Zr404       O970   2.344   1_456  S
Zr404       O416   2.341       .  S
O405       Zr953   2.384       .  S
O405       Zr956   2.339       .  S
C407        C472   1.486       .  S
C408        O937   1.320       .  A
C408       C1049   1.488       .  S
C409        C457   1.491       .  S
C410        C461   1.487       .  S
C411        C489   1.490       .  S
C412        C493   1.486       .  S
C413        C488   1.416   1_556  S
C414        C481   1.424   1_556  S
H415        O416   0.966       .  S
H417        O418   0.965       .  S
O418       Zr676   2.375       .  S
O418       Zr956   2.339   1_554  S
N419        C424   1.352       .  A
N419        C423   1.352       .  A
N419        H451   1.039       .  S
N420        C427   1.347       .  A
N420        C428   1.348       .  A
N421        C426   1.352       .  A
N421        C425   1.351       .  A
N421        H452   1.039       .  S
N422        C429   1.347       .  A
N422        C430   1.348       .  A
C423        C431   1.389       .  A
C423        C439   1.411       .  A
C424        C440   1.408       .  A
C424        C432   1.387       .  A
C425        C433   1.389       .  A
C425        C442   1.410       .  A
C426        C441   1.407       .  A
C426        C434   1.387       .  A
C427        C439   1.403       .  A
C427        C435   1.385       .  A
C428        C442   1.408       .  A
C428        C436   1.389       .  A
C429        C437   1.389       .  A
C429        C440   1.405       .  A
C430        C438   1.385       .  A
C430        C441   1.402       .  A
C431        C432   1.368       .  A
C431        H443   1.082       .  S
C432        H444   1.082       .  S
C433        C434   1.368       .  A
C433        H445   1.082       .  S
C434        H446   1.082       .  S
C435        C436   1.371       .  A
C435        H447   1.083       .  S
C436        H448   1.083       .  S
C437        C438   1.369       .  A
C437        H449   1.083       .  S
C438        H450   1.083       .  S
C439        C484   1.441       .  S
C440        C485   1.436       .  S
C441        C473   1.438       .  S
C442        C480   1.437       .  S
C453        C465   1.528       .  S
C453        C469   1.521       .  S
C453        C540   1.521       .  S
C453       C1096   1.519   1_455  S
C454        C460   1.526       .  S
C454        C464   1.523       .  S
C454        C548   1.526       .  S
C455        C500   1.527       .  S
C455        C501   1.523       .  S
C455       C1060   1.523   1_455  S
C455        C512   1.523       .  S
C456        C520   1.520   1_545  S
C457        C458   1.242   1_545  T
C458        C459   1.471       .  S
C459        C460   1.243       .  T
C461        C462   1.240   1_545  T
C462        C463   1.468       .  S
C463        C464   1.241       .  T
C465        C466   1.244       .  T
C466        C467   1.473       .  S
C467        C468   1.243       .  T
C469        C470   1.241       .  T
C470        C471   1.467       .  S
C471        C472   1.239       .  T
C473        C474   1.197       .  T
C474        C475   1.398   1_554  S
C475        C476   1.197       .  T
C477        C478   1.197       .  T
C478        C479   1.398       .  S
C479        C480   1.197       .  T
C481        C482   1.200       .  T
C482        C483   1.402       .  S
C483        C484   1.200       .  T
C485        C486   1.196       .  T
C486        C487   1.396       .  S
C487        C488   1.195       .  T
C489        C490   1.241       .  T
C490        C491   1.470       .  S
C491        C492   1.242       .  T
C493        C494   1.239       .  T
C494        C495   1.467       .  S
C495        C496   1.240       .  T
C497        C960   1.491       .  S
C497        C498   1.242       .  T
C498       C1051   1.471       .  S
C499       C1052   1.242       .  T
C499       C1050   1.469       .  S
C500       C1051   1.243       .  T
C501        C502   1.241       .  T
C502       C1055   1.468       .  S
C503       C1056   1.242       .  T
C503       C1054   1.471       .  S
C504       C1055   1.240       .  T
C505        C506   1.241       .  T
C506        C507   1.470       .  S
C507        C508   1.242       .  T
C508       C1007   1.525       .  S
C509        C510   1.240       .  T
C510        C511   1.467       .  S
C511        C512   1.241       .  T
C513        C514   1.241       .  T
C514        C515   1.470       .  S
C515        C516   1.242       .  T
C517        C518   1.239       .  T
C518        C519   1.466       .  S
C519        C520   1.239       .  T
C521        C522   1.200       .  T
C522        C523   1.402       .  S
C523        C524   1.200       .  T
C525        C526   1.193       .  T
C526        C527   1.392       .  S
C527        C528   1.194       .  T
C529        C530   1.201       .  T
C530        C531   1.404       .  S
C531        C532   1.201       .  T
C533        C534   1.197       .  T
C534        C535   1.397       .  S
C535        C536   1.196       .  T
C537        C538   1.240       .  T
C538        C539   1.467       .  S
C539        C540   1.240       .  T
C541        C542   1.242       .  T
C542        C543   1.471       .  S
C543        C544   1.243       .  T
C544       C1005   1.527       .  S
C545        C546   1.241       .  T
C546        C547   1.470       .  S
C547        C548   1.242       .  T
C549        C550   1.241       .  T
C550        C551   1.468       .  S
C551        C552   1.241       .  T
O553       Zr589   2.577       .  S
O553        C564   1.321       .  A
O554       Zr588   2.582       .  S
O554        C565   1.322       .  A
O555       Zr561   2.409       .  S
O555        C566   1.282       .  A
O556       Zr561   2.414       .  S
O556        C567   1.283       .  A
O557       Zr591   2.431       .  S
O557        C567   1.287       .  A
O558       Zr590   2.443       .  S
O558        C566   1.289       .  A
O559       Zr561   2.413       .  S
O559        C565   1.285       .  A
O560       Zr561   2.411       .  S
O560        C564   1.283       .  A
Zr561       O562   2.336       .  S
Zr561       O563   2.341       .  S
Zr561       O571   2.343       .  S
Zr561       O569   2.341       .  S
O562       Zr588   2.369       .  S
O562       Zr591   2.342       .  S
O563       Zr589   2.384       .  S
O563       Zr590   2.345       .  S
C564        C825   1.488       .  S
C565        C789   1.490       .  S
C566        C797   1.427       .  S
C567        C801   1.426       .  S
H568        O569   0.965       .  S
O569       Zr588   2.369       .  S
O569       Zr590   2.336       .  S
H570        O571   0.966       .  S
O571       Zr589   2.379       .  S
O571       Zr591   2.352       .  S
O572       Zr588   2.577       .  S
O572        C595   1.321       .  A
O573       Zr589   2.573       .  S
O573        C596   1.320       .  A
O574       Zr590   2.406       .  S
O574        C597   1.284       .  A
O575       Zr591   2.413       .  S
O575        C598   1.285       .  A
O576       Zr591   2.410       .  S
O576        C599   1.284       .  A
O577       Zr590   2.409       .  S
O577        C600   1.285       .  A
O578       Zr592   2.424       .  S
O578        C601   1.285       .  A
O579       Zr592   2.401       .  S
O579        C602   1.281       .  A
O580       Zr590   2.426       .  S
O580        C601   1.285       .  A
O581       Zr591   2.449       .  S
O581        C602   1.290       .  A
O582       Zr588   2.578       .  S
O582        C597   1.321       .  A
O583       Zr589   2.567       .  S
O583        C600   1.319       .  A
O584       Zr589   2.586       .  S
O584        C599   1.323       .  A
O585       Zr588   2.573       .  S
O585        C598   1.320       .  A
O586       Zr592   2.401       .  S
O586        C595   1.282       .  A
O587       Zr592   2.413       .  S
O587        C596   1.285       .  A
Zr588       O594   2.370       .  S
Zr588       O606   2.374       .  S
Zr589       O593   2.374       .  S
Zr589       O604   2.392       .  S
Zr590       O594   2.338       .  S
Zr590       O604   2.355       .  S
Zr591       O593   2.342       .  S
Zr591       O606   2.338       .  S
Zr592       O593   2.343       .  S
Zr592       O594   2.331       .  S
Zr592       O606   2.348       .  S
Zr592       O604   2.338       .  S
C595        C793   1.482       .  S
C596        C821   1.486       .  S
C597        C781   1.485       .  S
C598        C785   1.487       .  S
C599        C813   1.490       .  S
C600        C817   1.478       .  S
C601        C812   1.427       .  S
C602        C805   1.425       .  S
H603        O604   0.966       .  S
H605        O606   0.965       .  S
N607        C612   1.354       .  A
N607        H639   1.039       .  S
N608        C891   1.347   1_545  A
N608        C616   1.349       .  A
N609        C614   1.352   1_455  A
N609        H640   1.041       .  S
N610        C893   1.346       .  A
N610        C618   1.348   1_565  A
C611        C619   1.389       .  A
C611        C627   1.411       .  A
C612        C628   1.412   1_455  A
C612        C620   1.387       .  A
C613        C621   1.387       .  A
C613        C630   1.409       .  A
C614        C629   1.408       .  A
C614        C622   1.388       .  A
C615        N884   1.348       .  A
C615        C627   1.404       .  A
C615        C623   1.386       .  A
C616        C630   1.407       .  A
C616        C624   1.387       .  A
C617        N886   1.348       .  A
C617        C625   1.388       .  A
C617        C628   1.409       .  A
C618        C626   1.385   1_545  A
C618        C629   1.403       .  A
C619        H631   1.082       .  S
C620        H632   1.082       .  S
C621        H633   1.082       .  S
C622        H634   1.082       .  S
C623        C900   1.372       .  A
C623        H635   1.083       .  S
C624        C899   1.373   1_545  A
C624        H636   1.082       .  S
C625        C902   1.371       .  A
C625        H637   1.082       .  S
C626        C901   1.373       .  A
C626        H638   1.083   1_565  S
C627        C808   1.442       .  S
C628        C809   1.444       .  S
C629        C800   1.443       .  S
C630        C804   1.443       .  S
O641       Zr953   2.584       .  S
O641        C652   1.322       .  A
O642       Zr676   2.574       .  S
O642        C653   1.319       .  A
O643       Zr649   2.399       .  S
O643        C654   1.280       .  A
O644        C655   1.284       .  A
O645       Zr679   2.402       .  S
O645        C655   1.281       .  A
O646       Zr678   2.430       .  S
O646        C654   1.287       .  A
O647       Zr649   2.419   1_554  S
O647        C653   1.285       .  A
O648       Zr649   2.407       .  S
O648        C652   1.284       .  A
Zr649       O651   2.342       .  S
Zr649       O657   2.341   1_556  S
O650       Zr679   2.342   1_554  S
O651       Zr953   2.376       .  S
O651       Zr678   2.339       .  S
C652        C780   1.488       .  S
C653        C744   1.487       .  S
C654        C752   1.416       .  S
C655        C753   1.413   1_556  S
H656        O657   0.965       .  S
O657       Zr676   2.373       .  S
O657       Zr678   2.341   1_554  S
H658        O659   0.966       .  S
O659       Zr679   2.347       .  S
O660       Zr952   2.567       .  S
O660        C683   1.319       .  A
O661       Zr677   2.567   1_545  S
O662       Zr678   2.417   1_554  S
O662        C685   1.286       .  A
O663       Zr679   2.412   1_554  S
O663        C686   1.284       .  A
O664       Zr955   2.414       .  S
O664        C687   1.285   1_545  A
O665       Zr954   2.412       .  S
O665        C688   1.284       .  A
O666       Zr680   2.417       .  S
O666        C689   1.284       .  A
O667        C690   1.278       .  A
O668       Zr954   2.421   1_545  S
O668        C689   1.284       .  A
O669       Zr955   2.436       .  S
O669        C690   1.287       .  A
O670       Zr676   2.580       .  S
O670        C685   1.321       .  A
O671       Zr677   2.590       .  S
O671        C688   1.323       .  A
O672        C687   1.323       .  A
O673        C686   1.320       .  A
O674       Zr680   2.421   1_554  S
O674        C683   1.286       .  A
O675        C684   1.284       .  A
Zr676       O936   2.578       .  S
Zr676       O958   2.371       .  S
Zr677       O917   2.585       .  S
Zr677       O927   2.368       .  S
Zr677       O692   2.374   1_565  S
Zr678       O941   2.416       .  S
Zr678       O944   2.415       .  S
Zr678       O958   2.340   1_556  S
Zr678       O968   2.348       .  S
Zr679       O940   2.418       .  S
Zr679       O945   2.424       .  S
Zr679       O957   2.339       .  S
Zr679       O970   2.342   1_556  S
Zr680       O682   2.341   1_556  S
Zr680       O692   2.343       .  S
O681       Zr955   2.337       .  S
O682       Zr952   2.382       .  S
O682       Zr954   2.341   1_544  S
C683        C748   1.485       .  S
C685        C733   1.490       .  S
C686        C737   1.487       .  S
C687        C765   1.493       .  S
C688        C769   1.494       .  S
C689        C764   1.420       .  S
C690        C757   1.415       .  S
H691        O692   0.965       .  S
O692       Zr954   2.336   1_545  S
H693        O694   0.965       .  S
O694       Zr955   2.339   1_554  S
N695        C700   1.352       .  A
N695        C699   1.348       .  A
N695        H727   1.040       .  S
N696        C703   1.348       .  A
N696        C704   1.348       .  A
N697        C702   1.351       .  A
N697        C701   1.350       .  A
N697        H728   1.040       .  S
N698        C705   1.346       .  A
N698        C706   1.344       .  A
C699        C707   1.392       .  A
C699        C715   1.409       .  A
C700        C716   1.403       .  A
C700        C708   1.384       .  A
C701        C709   1.389       .  A
C701        C718   1.407       .  A
C702        C717   1.406       .  A
C702        C710   1.388       .  A
C703        C715   1.404       .  A
C703        C711   1.386       .  A
C704        C718   1.406       .  A
C704        C712   1.389       .  A
C705        C713   1.387       .  A
C705        C716   1.400       .  A
C706        C714   1.385       .  A
C706        C717   1.396       .  A
C707        C708   1.368       .  A
C707        H719   1.081   1_554  S
C708        H720   1.082   1_554  S
C709        C710   1.369       .  A
C709        H721   1.082       .  S
C710        H722   1.082       .  S
C711        C712   1.370       .  A
C711        H723   1.083       .  S
C712        H724   1.083       .  S
C713        C714   1.369       .  A
C713        H725   1.082       .  S
C714        H726   1.083       .  S
C715        C760   1.433       .  S
C716        C761   1.438       .  S
C717        C749   1.434       .  S
C718        C756   1.433       .  S
C729        C741   1.520       .  S
C729        C745   1.521       .  S
C729        C816   1.528       .  S
C730        C736   1.524       .  S
C730        C740   1.522       .  S
C730        C824   1.519       .  S
C730       C1104   1.519       .  S
C731        C776   1.519       .  S
C731        C777   1.522       .  S
C731        C788   1.523       .  S
C732       C1044   1.526       .  S
C732       C1048   1.527       .  S
C732       C1068   1.521       .  S
C732        C796   1.518       .  S
C733        C734   1.241       .  T
C734        C735   1.470       .  S
C735        C736   1.242       .  T
C737        C738   1.240       .  T
C738        C739   1.467       .  S
C739        C740   1.240       .  T
C741        C742   1.239       .  T
C742        C743   1.466       .  S
C743        C744   1.239       .  T
C745        C746   1.239       .  T
C746        C747   1.465       .  S
C747        C748   1.238       .  T
C749        C750   1.196       .  T
C750        C751   1.394       .  S
C751        C752   1.195   1_554  T
C753        C754   1.194       .  T
C754        C755   1.393       .  S
C755        C756   1.194       .  T
C757        C758   1.195       .  T
C758        C759   1.394   1_556  S
C759        C760   1.195       .  T
C761        C762   1.197   1_554  T
C762        C763   1.397       .  S
C763        C764   1.197       .  T
C765        C766   1.243       .  T
C766        C767   1.473       .  S
C767        C768   1.244       .  T
C768       C1008   1.527       .  S
C769        C770   1.244       .  T
C770        C771   1.475       .  S
C771        C772   1.245       .  T
C772       C1008   1.530       .  S
C773        C774   1.237       .  T
C777        C778   1.240       .  T
C781        C782   1.239       .  T
C782        C783   1.466       .  S
C783        C784   1.239       .  T
C785        C786   1.240       .  T
C786        C787   1.467       .  S
C787        C788   1.240       .  T
C789        C790   1.241       .  T
C790        C791   1.470       .  S
C791        C792   1.242       .  T
C792       C1008   1.525   1_545  S
C793        C794   1.237       .  T
C794        C795   1.464       .  S
C795        C796   1.238       .  T
C797        C798   1.201       .  T
C798        C799   1.405       .  S
C799        C800   1.201       .  T
C801        C802   1.201       .  T
C802        C803   1.404       .  S
C803        C804   1.201       .  T
C805        C806   1.200       .  T
C806        C807   1.403       .  S
C807        C808   1.201       .  T
C809        C810   1.201       .  T
C810        C811   1.404       .  S
C811        C812   1.201       .  T
C813        C814   1.242       .  T
C814        C815   1.472       .  S
C815        C816   1.244       .  T
C817        C818   1.234       .  T
C818        C819   1.458       .  S
C819        C820   1.235       .  T
C821        C822   1.239       .  T
C822        C823   1.465       .  S
C823        C824   1.239       .  T
C825        C826   1.241       .  T
C826        C827   1.470       .  S
C827        C828   1.242       .  T
C828       C1006   1.525       .  S
O829       Zr865   2.570       .  S
O829        C840   1.319       .  A
O830       Zr864   2.571       .  S
O830        C841   1.319       .  A
O831       Zr837   2.417       .  S
O831        C842   1.283       .  A
O832       Zr837   2.414       .  S
O832        C843   1.283       .  A
O833       Zr867   2.413       .  S
O833        C843   1.283       .  A
O834       Zr866   2.433       .  S
O834        C842   1.287       .  A
O835       Zr837   2.416       .  S
O835        C841   1.285       .  A
O836       Zr837   2.404       .  S
O836        C840   1.282       .  A
Zr837       O838   2.337       .  S
Zr837       O839   2.343       .  S
Zr837       O847   2.345       .  S
Zr837       O845   2.338       .  S
O838       Zr864   2.369       .  S
O838       Zr867   2.337       .  S
O839       Zr865   2.387       .  S
O839       Zr866   2.342       .  S
C840       C1101   1.480       .  S
C841       C1065   1.486       .  S
C842       C1073   1.426       .  S
C843       C1077   1.417       .  S
H844        O845   0.965       .  S
O845       Zr864   2.372       .  S
O845       Zr866   2.338       .  S
H846        O847   0.966       .  S
O847       Zr865   2.382       .  S
O847       Zr867   2.347       .  S
O848       Zr864   2.580       .  S
O848        C871   1.321       .  A
O849       Zr865   2.583       .  S
O849        C872   1.322       .  A
O850       Zr866   2.412       .  S
O850        C873   1.285       .  A
O851       Zr867   2.420       .  S
O851        C874   1.286       .  A
O852       Zr867   2.411       .  S
O852        C875   1.284       .  A
O853       Zr866   2.413       .  S
O853        C876   1.285       .  A
O854       Zr868   2.429       .  S
O854        C877   1.286       .  A
O855       Zr868   2.411       .  S
O855        C878   1.282       .  A
O856       Zr866   2.414       .  S
O856        C877   1.283       .  A
O857       Zr867   2.427       .  S
O857        C878   1.286       .  A
O858       Zr864   2.580       .  S
O858        C873   1.321       .  A
O859       Zr865   2.574       .  S
O859        C876   1.320       .  A
O860       Zr865   2.578       .  S
O860        C875   1.321       .  A
O861       Zr864   2.590       .  S
O861        C874   1.323       .  A
O862       Zr868   2.406       .  S
O862        C871   1.283       .  A
O863       Zr868   2.419       .  S
O863        C872   1.286       .  A
Zr864       O870   2.373       .  S
Zr864       O882   2.368       .  S
Zr865       O869   2.377       .  S
Zr865       O880   2.387       .  S
Zr866       O870   2.339       .  S
Zr866       O880   2.354       .  S
Zr867       O869   2.345       .  S
Zr867       O882   2.340       .  S
Zr868       O869   2.344       .  S
Zr868       O870   2.334       .  S
Zr868       O882   2.349       .  S
Zr868       O880   2.342       .  S
C871       C1069   1.485       .  S
C872       C1097   1.494       .  S
C873       C1057   1.488       .  S
C874       C1061   1.498       .  S
C875       C1089   1.487       .  S
C876       C1093   1.484       .  S
C877       C1088   1.424       .  S
C878       C1081   1.419       .  S
H879        O880   0.966       .  S
H881        O882   0.965       .  S
N883        C888   1.353       .  A
N883        H915   1.040       .  S
N884        C892   1.347       .  A
N885        C890   1.352   1_455  A
N885        H916   1.034       .  S
N886        C894   1.349       .  A
C887        C895   1.390       .  A
C887        C903   1.410       .  A
C888        C904   1.411   1_455  A
C888        C896   1.387       .  A
C889        C897   1.388       .  A
C889        C906   1.408       .  A
C890        C905   1.412       .  A
C890        C898   1.389       .  A
C891        C903   1.402       .  A
C891        C899   1.386       .  A
C892        C906   1.404       .  A
C892        C900   1.388       .  A
C893        C901   1.389       .  A
C893        C904   1.406       .  A
C894        C902   1.385       .  A
C894        C905   1.407       .  A
C895        H907   1.082       .  S
C896        H908   1.082       .  S
C897        H909   1.082       .  S
C898        H910   1.082       .  S
C899        H911   1.083       .  S
C900        H912   1.083       .  S
C901        H913   1.083       .  S
C902        H914   1.083       .  S
C903       C1084   1.437       .  S
C904       C1085   1.441       .  S
C905       C1076   1.444       .  S
C906       C1080   1.437       .  S
O917        C928   1.322       .  A
O918       Zr952   2.589   1_565  S
O918        C929   1.323       .  A
O919       Zr925   2.394       .  S
O919        C930   1.280       .  A
O920        C931   1.282       .  A
O921       Zr955   2.409   1_565  S
O921        C931   1.282       .  A
O922       Zr954   2.419       .  S
O922        C930   1.285       .  A
O923       Zr925   2.412   1_554  S
O923        C929   1.284       .  A
O924       Zr925   2.409       .  S
O924        C928   1.284       .  A
Zr925       O927   2.344       .  S
Zr925       O933   2.345   1_556  S
O926       Zr955   2.338   1_564  S
O927       Zr954   2.343       .  S
C928       C1056   1.491       .  S
C929       C1020   1.494       .  S
C930       C1028   1.410       .  S
C931       C1029   1.412   1_556  S
H932        O933   0.965       .  S
O933       Zr952   2.368   1_565  S
O933       Zr954   2.346   1_554  S
H934        O935   0.966       .  S
O935       Zr955   2.351   1_565  S
O936        C959   1.321       .  A
O937       Zr953   2.573       .  S
O938       Zr954   2.413   1_544  S
O938        C961   1.285       .  A
O939       Zr955   2.406   1_554  S
O939        C962   1.284       .  A
O940        C963   1.286       .  A
O941        C964   1.285       .  A
O942       Zr956   2.406       .  S
O942        C965   1.282       .  A
O943        C966   1.282       .  A
O944        C965   1.284       .  A
O945        C966   1.285       .  A
O946       Zr952   2.572       .  S
O946        C961   1.319       .  A
O947       Zr953   2.582       .  S
O947        C964   1.322       .  A
O948        C963   1.322       .  A
O949        C962   1.321       .  A
O950       Zr956   2.406   1_554  S
O950        C959   1.283       .  A
O951        C960   1.285       .  A
Zr953       O968   2.379       .  S
Zr956       O958   2.340   1_556  S
Zr956       O968   2.341       .  S
C959       C1024   1.485       .  S
C961       C1009   1.485       .  S
C962       C1013   1.484       .  S
C963       C1041   1.493       .  S
C964       C1045   1.490       .  S
C965       C1040   1.415       .  S
C966       C1033   1.418   1_556  S
H967        O968   0.966       .  S
H969        O970   0.965       .  S
N971        C976   1.349       .  A
N971        C975   1.348       .  A
N971       H1003   1.043       .  S
N972        C979   1.345       .  A
N972        C980   1.346       .  A
N973        C978   1.347       .  A
N973        C977   1.346       .  A
N973       H1004   1.042       .  S
N974        C981   1.343       .  A
N974        C982   1.343       .  A
C975        C983   1.389       .  A
C975        C991   1.405       .  A
C976        C992   1.403       .  A
C976        C984   1.387       .  A
C977        C985   1.389       .  A
C977        C994   1.402       .  A
C978        C993   1.402       .  A
C978        C986   1.389       .  A
C979        C991   1.400       .  A
C979        C987   1.385       .  A
C980        C994   1.402       .  A
C980        C988   1.387       .  A
C981        C989   1.388       .  A
C981        C992   1.399       .  A
C982        C990   1.385       .  A
C982        C993   1.396       .  A
C983        C984   1.372       .  A
C983        H995   1.082       .  S
C984        H996   1.082       .  S
C985        C986   1.373       .  A
C985        H997   1.082       .  S
C986        H998   1.082       .  S
C987        C988   1.374       .  A
C987        H999   1.082       .  S
C988       H1000   1.082       .  S
C989        C990   1.374       .  A
C989       H1001   1.082       .  S
C990       H1002   1.082       .  S
C991       C1036   1.434       .  S
C992       C1037   1.431       .  S
C993       C1025   1.428       .  S
C994       C1032   1.428       .  S
C1005      C1017   1.529       .  S
C1005      C1021   1.521       .  S
C1005      C1092   1.522       .  S
C1006      C1012   1.520       .  S
C1006      C1016   1.519       .  S
C1006      C1100   1.528   1_545  S
C1007      C1052   1.526       .  S
C1007      C1053   1.526       .  S
C1007      C1064   1.532       .  S
C1008      C1072   1.522       .  S
C1009      C1010   1.238       .  T
C1010      C1011   1.465       .  S
C1011      C1012   1.239       .  T
C1013      C1014   1.238       .  T
C1014      C1015   1.464       .  S
C1015      C1016   1.238       .  T
C1017      C1018   1.244       .  T
C1018      C1019   1.474       .  S
C1019      C1020   1.244       .  T
C1021      C1022   1.240       .  T
C1022      C1023   1.467       .  S
C1023      C1024   1.239       .  T
C1025      C1026   1.192       .  T
C1026      C1027   1.389   1_554  S
C1027      C1028   1.191       .  T
C1029      C1030   1.193       .  T
C1030      C1031   1.391       .  S
C1031      C1032   1.193       .  T
C1033      C1034   1.197       .  T
C1034      C1035   1.397       .  S
C1035      C1036   1.197       .  T
C1037      C1038   1.195       .  T
C1038      C1039   1.393       .  S
C1039      C1040   1.194   1_554  T
C1041      C1042   1.243       .  T
C1042      C1043   1.471       .  S
C1043      C1044   1.243       .  T
C1045      C1046   1.242       .  T
C1046      C1047   1.471       .  S
C1047      C1048   1.243       .  T
C1049      C1050   1.241       .  T
C1053      C1054   1.243       .  T
C1057      C1058   1.240       .  T
C1058      C1059   1.468       .  S
C1059      C1060   1.241       .  T
C1061      C1062   1.246       .  T
C1062      C1063   1.476       .  S
C1063      C1064   1.246       .  T
C1065      C1066   1.239       .  T
C1066      C1067   1.465       .  S
C1067      C1068   1.239       .  T
C1069      C1070   1.239       .  T
C1070      C1071   1.467       .  S
C1071      C1072   1.240       .  T
C1073      C1074   1.201       .  T
C1074      C1075   1.405       .  S
C1075      C1076   1.202       .  T
C1077      C1078   1.196       .  T
C1078      C1079   1.398       .  S
C1079      C1080   1.197       .  T
C1081      C1082   1.197       .  T
C1082      C1083   1.399       .  S
C1083      C1084   1.198       .  T
C1085      C1086   1.200       .  T
C1086      C1087   1.402       .  S
C1087      C1088   1.200       .  T
C1089      C1090   1.240       .  T
C1090      C1091   1.468       .  S
C1091      C1092   1.241       .  T
C1093      C1094   1.238       .  T
C1094      C1095   1.464       .  S
C1095      C1096   1.239       .  T
C1097      C1098   1.243       .  T
C1098      C1099   1.473       .  S
C1099      C1100   1.244       .  T
C1101      C1102   1.237       .  T
C1102      C1103   1.463       .  S
C1103      C1104   1.238       .  T
