geometry optimzed in LAMMPS
_audit_creation_date              2020-11-30 
_audit_creation_method            'lammps2cif' 
_symmetry_space_group_name_H-M    'P1' 
_symmetry_Int_Tables_number       1 
_symmetry_cell_setting            triclinic 
loop_ 
_symmetry_equiv_pos_as_xyz 
  x,y,z 
_cell_length_a                    50.99247546 
_cell_length_b                    52.07683606122566 
_cell_length_c                    41.044754984305044 
_cell_angle_alpha                 89.96468360600824 
_cell_angle_beta                  90.19832723898053 
_cell_angle_gamma                 90.06313003417256 
loop_ 
_atom_site_label 
_atom_site_type_symbol 
_atom_site_fract_x 
_atom_site_fract_y 
_atom_site_fract_z 
_atom_site_charge 
O1          O  0.23965973  0.21235911  0.41166501    -0.80300
O2          O  0.25054474  0.21406361  0.59759799    -0.81800
O3          O  0.28773220  0.18201062  0.50081616    -0.78800
O4          O  0.20152695  0.18553516  0.50823305    -0.77200
O5          O  0.17049564  0.21715349  0.50764426    -0.79000
O6          O  0.31964625  0.21234293  0.49626666    -0.79900
O7          O  0.24849067  0.18451421  0.55736872    -0.81300
O8          O  0.24217760  0.18264419  0.45242515    -0.81600
Eu9        Eu  0.24561522  0.20496021  0.50448200     2.39200
O10         O  0.22038013  0.23123405  0.53869121    -0.89100
O11         O  0.27154989  0.22965067  0.46922042    -0.92700
C12         C  0.23944017  0.18896837  0.42226059     1.02000
C13         C  0.25089241  0.19052103  0.58747435     1.01800
C14         C  0.31186015  0.18883091  0.49683008     1.01800
C15         C  0.17750394  0.19343436  0.50869327     0.99600
H16         H  0.28503771  0.21951052  0.54969949     0.29400
O17         O  0.27361912  0.23031656  0.53682218    -1.01500
H18         H  0.20730027  0.21999809  0.45915154     0.29400
O19         O  0.21916275  0.23080245  0.47133938    -1.04000
O20         O  0.24968155  0.30043055  0.59608571    -0.81200
O21         O  0.24174359  0.29878934  0.40981364    -0.80800
O22         O  0.32293852  0.25665612  0.55419673    -0.79200
O23         O  0.17277949  0.25744828  0.55737282    -0.82500
O24         O  0.17118558  0.25425099  0.45348556    -0.80400
O25         O  0.32022888  0.25446713  0.44771363    -0.79000
O26         O  0.29308396  0.32679562  0.49602400    -0.80600
O27         O  0.20755592  0.33033567  0.50241904    -0.82500
O28         O  0.32375006  0.29541161  0.50047223    -0.79200
O29         O  0.17483290  0.30016016  0.50183338    -0.81900
O30         O  0.29253198  0.25868655  0.59527452    -0.77600
O31         O  0.28834992  0.25415580  0.40803676    -0.77700
O32         O  0.20000866  0.25594313  0.41128998    -0.77300
O33         O  0.20363284  0.25800036  0.59771812    -0.80800
O34         O  0.25556344  0.32858086  0.55433115    -0.80200
O35         O  0.24738784  0.32931594  0.44897614    -0.78600
Eu36       Eu  0.24800920  0.25708194  0.57107992     2.39800
Eu37       Eu  0.24481460  0.25568223  0.43559347     2.39600
Eu38       Eu  0.29973931  0.25484596  0.50146738     2.38400
Eu39       Eu  0.19465860  0.25762422  0.50503437     2.39900
Eu40       Eu  0.24939092  0.30753694  0.50176085     2.39800
O41         O  0.22061510  0.28259021  0.47013341    -0.93000
O42         O  0.27479886  0.28131231  0.53552423    -0.91900
C43         C  0.25334329  0.32337659  0.58481375     1.02200
C44         C  0.24368005  0.32246853  0.41916179     1.00900
C45         C  0.31634858  0.25818889  0.58449886     1.00300
C46         C  0.17943844  0.25780990  0.58757238     1.02300
C47         C  0.17644547  0.25448057  0.42290267     1.01200
C48         C  0.31259444  0.25414857  0.41776064     1.00100
C49         C  0.31707907  0.31906742  0.49724986     1.00100
C50         C  0.18331569  0.32343569  0.50138712     1.02700
H51         H  0.28450270  0.29119630  0.45326651     0.30100
O52         O  0.27368054  0.28085765  0.46745419    -1.05100
H53         H  0.21182062  0.29505969  0.55028067     0.32200
O54         O  0.22223012  0.28363690  0.53708789    -1.07700
N55         N  0.03663771  0.00463214  0.48753578    -0.36700
N56         N  0.49755336  0.46599980  0.47023630    -0.57300
N57         N  0.45769945  0.00494592  0.46592148    -0.36700
N58         N  0.49691098  0.04362765  0.48455965    -0.57300
C59         C  0.04921960  0.48267279  0.49490353     0.26800
C60         C  0.04955564  0.02417247  0.50228075     0.26800
C61         C  0.44277584  0.48345363  0.46787660     0.26800
C62         C  0.44229775  0.02502131  0.47389731     0.26800
C63         C  0.01964071  0.45239881  0.46593737     0.35500
C64         C  0.47789533  0.45219907  0.45684629     0.35500
C65         C  0.01876801  0.05889701  0.48729245     0.35500
C66         C  0.47668912  0.05900783  0.47605704     0.35500
C67         C  0.07046519  0.48835367  0.51491460    -0.22000
C68         C  0.07083048  0.01456959  0.51947148    -0.22000
C69         C  0.41745702  0.49000588  0.47675135    -0.22000
C70         C  0.41707470  0.01635582  0.48029749    -0.22000
C71         C  0.01397352  0.42992738  0.44913353    -0.23100
C72         C  0.48744606  0.42953418  0.44394298    -0.23100
C73         C  0.01207108  0.08407972  0.48024809    -0.23100
C74         C  0.48526742  0.08417991  0.47326800    -0.23100
C75         C  0.04375365  0.45826963  0.48120606    -0.18400
C76         C  0.04380951  0.05053325  0.49792751    -0.18400
C77         C  0.45019608  0.05103441  0.47426823    -0.18400
C78         C  0.45124795  0.45825690  0.46095161    -0.18400
H79         H  0.08485320  0.47506445  0.52452746     0.14500
H80         H  0.08527417  0.02541477  0.53311322     0.14500
H81         H  0.40089625  0.47727627  0.48015801     0.14500
H82         H  0.40012195  0.02769519  0.48680825     0.14500
H83         H  0.02744197  0.41469990  0.44277278     0.12800
H84         H  0.47624949  0.41424370  0.43267154     0.12800
H85         H  0.02478202  0.10073349  0.48039794     0.12800
H86         H  0.47359081  0.10096302  0.46767869     0.12800
H87         H  0.02229211  0.00649683  0.46961878     0.26000
H88         H  0.47664729  0.00620202  0.45673268     0.26000
O89         O  0.49951655  0.44354834  0.91161772    -0.80300
O90         O  0.50293555  0.45081782  0.09953505    -0.81800
O91         O  0.05002990  0.42167569  0.00147597    -0.78800
O92         O  0.46630154  0.41311436  0.00544867    -0.77200
O93         O  0.43150661  0.44077927  0.00433088    -0.79000
O94         O  0.07912736  0.45460779  0.00498574    -0.79900
O95         O  0.50693433  0.41911246  0.06100074    -0.81300
O96         O  0.50427365  0.41498966  0.95314246    -0.81600
Eu97       Eu  0.50588051  0.43868723  0.00606860     2.39200
O98         O  0.47755037  0.46304543  0.03956593    -0.89100
O99         O  0.03010658  0.46535042  0.97151308    -0.92700
C100        C  0.50093520  0.42034505  0.92254616     1.02000
C101        C  0.50502349  0.42701045  0.09077169     1.01800
C102        C  0.07354583  0.43050047  0.00273745     1.01800
C103        C  0.44167972  0.41798284  0.00395598     0.99600
H104        H  0.04189823  0.45810623  0.05215651     0.29400
O105        O  0.03000258  0.46769751  0.03845713    -1.01500
H106        H  0.46648607  0.44949815  0.95962641     0.29400
O107        O  0.47695633  0.46132554  0.97228876    -1.04000
O108        O  0.50320076  0.03768798  0.09201932    -0.81200
O109        O  0.49743614  0.02780762  0.90589938    -0.80800
O110        O  0.07599357  0.49810276  0.05641934    -0.79200
O111        O  0.42692328  0.48886341  0.05934092    -0.82500
O112        O  0.42688559  0.48620970  0.95233811    -0.80400
O113        O  0.07724131  0.49193165  0.95287387    -0.79000
O114        O  0.03525656  0.06751234  0.99577895    -0.80600
O115        O  0.45259788  0.05884790  0.99745190    -0.82500
O116        O  0.07011698  0.04007195  0.00012852    -0.79200
O117        O  0.42342729  0.02577780  0.00238940    -0.81900
O118        O  0.04575872  0.49512634  0.09735206    -0.77600
O119        O  0.04719830  0.98625516  0.91189316    -0.77700
O120        O  0.45651354  0.98434064  0.91130923    -0.77300
O121        O  0.45836560  0.49509351  0.09849172    -0.80800
O122        O  0.49628073  0.06489706  0.04978452    -0.80200
O123        O  0.49362618  0.05944816  0.94424355    -0.78600
Eu124      Eu  0.50183634  0.49297138  0.07106704     2.39800
Eu125      Eu  0.50141659  0.48688439  0.93579225     2.39600
Eu126      Eu  0.05385372  0.49493024  0.00368144     2.38400
Eu127      Eu  0.44848899  0.48549042  0.00537105     2.39900
Eu128      Eu  0.49649377  0.04073530  0.99895942     2.39800
O129        O  0.47249862  0.01099959  0.96864826    -0.93000
O130        O  0.02527035  0.01972926  0.03492232    -0.91900
C131        C  0.50012235  0.06054110  0.08023290     1.02200
C132        C  0.49459478  0.05151000  0.91451893     1.00900
C133        C  0.06958554  0.49686677  0.08672293     1.00300
C134        C  0.43413389  0.49311077  0.08915544     1.02300
C135        C  0.43259562  0.98514178  0.92192854     1.01200
C136        C  0.07112510  0.98879649  0.92280233     1.00100
C137        C  0.05989926  0.06274297  0.99721443     1.00100
C138        C  0.42920057  0.04984478  0.99973551     1.02700
H139        H  0.03576564  0.02753177  0.95287576     0.30100
O140        O  0.02571060  0.01652873  0.96713322    -1.05100
H141        H  0.46150672  0.02595501  0.04833190     0.32200
O142        O  0.47298237  0.01503017  0.03579810    -1.07700
N143        N  0.29181686  0.23638646  0.98442267    -0.36700
N144        N  0.24812353  0.20139160  0.98620843    -0.57300
N145        N  0.21238061  0.24390283  0.98646371    -0.36700
N146        N  0.25562500  0.27903972  0.98405846    -0.57300
C147        C  0.30369555  0.21434816  0.99372655     0.26800
C148        C  0.30772915  0.25603756  0.99296200     0.26800
C149        C  0.19705674  0.22445413  0.99705956     0.26800
C150        C  0.20088982  0.26607357  0.99565315     0.26800
C151        C  0.26766334  0.18511972  0.97852680     0.35500
C152        C  0.22551288  0.18933061  0.97865127     0.35500
C153        C  0.27805322  0.29145841  0.97684164     0.35500
C154        C  0.23584917  0.29547469  0.97763762     0.35500
C155        C  0.32764614  0.21999326  0.00814553    -0.22000
C156        C  0.33018376  0.24639221  0.00772073    -0.22000
C157        C  0.17568715  0.23438257  0.01365372    -0.22000
C158        C  0.17800191  0.26076478  0.01250185    -0.22000
C159        C  0.25756233  0.16261015  0.96562850    -0.23100
C160        C  0.23072900  0.16543155  0.96523848    -0.23100
C161        C  0.27254575  0.31593159  0.96532800    -0.23100
C162        C  0.24567622  0.31849420  0.96588442    -0.23100
C163        C  0.29402073  0.18940825  0.98712803    -0.18400
C164        C  0.30314421  0.28215845  0.98528937    -0.18400
C165        C  0.20959172  0.29074963  0.98644026    -0.18400
C166        C  0.20069709  0.19838667  0.98851856    -0.18400
H167        H  0.34192936  0.20650025  0.01753552     0.14500
H168        H  0.34683393  0.25721688  0.01670569     0.14500
H169        H  0.15963203  0.22375962  0.02437201     0.14500
H170        H  0.16417893  0.27446948  0.02230999     0.14500
H171        H  0.26835871  0.14572302  0.95822059     0.12800
H172        H  0.21667004  0.15104380  0.95760964     0.12800
H173        H  0.28646527  0.33072220  0.95865997     0.12800
H174        H  0.23472431  0.33561470  0.95967604     0.12800
H175        H  0.27524535  0.23777458  0.96963975     0.26000
H176        H  0.22776769  0.24225276  0.96996201     0.26000
C177        C  0.49447481  0.21875911  0.22860455     0.86400
C178        C  0.01723050  0.21814257  0.25238299    -0.53900
C179        C  0.01917579  0.23909538  0.27195050     0.09300
C180        C  0.49654118  0.25887976  0.26720139     0.20200
C181        C  0.47059556  0.22176766  0.25162292    -0.54600
C182        C  0.47124879  0.24298159  0.27135319     0.09400
C183        C  0.49737369  0.24461155  0.21111559    -0.54100
C184        C  0.49705428  0.26621502  0.23034832     0.09900
H185        H  0.03111436  0.20238072  0.25388429     0.14500
H186        H  0.49669138  0.27484865  0.28455183     0.00200
H187        H  0.45508010  0.20770572  0.25398190     0.14800
H188        H  0.50017672  0.24532401  0.18497083     0.14600
C189        C  0.24773650  0.02872959  0.28115574     0.86400
C190        C  0.27307175  0.02803772  0.26016668    -0.53900
C191        C  0.27562348  0.50700454  0.24030691     0.09300
C192        C  0.25158470  0.48886072  0.24277411     0.20200
C193        C  0.22630053  0.02701825  0.25508623    -0.54600
C194        C  0.22731844  0.50620690  0.23580281     0.09400
C195        C  0.24692087  0.50279191  0.29882082    -0.54100
C196        C  0.24966790  0.48159978  0.27916251     0.09900
H197        H  0.28740834  0.04343750  0.26040902     0.14500
H198        H  0.25361503  0.47201850  0.22707715     0.00200
H199        H  0.21141351  0.04159846  0.25132403     0.14800
H200        H  0.24441007  0.50134623  0.32501374     0.14600
C201        C  0.49703352  0.21349688  0.77600947     0.86400
C202        C  0.47244352  0.21725925  0.75454522    -0.53900
C203        C  0.47195170  0.23927122  0.73641109     0.09300
C204        C  0.49661092  0.25630434  0.74191393     0.20200
C205        C  0.02043457  0.21656292  0.75279855    -0.54600
C206        C  0.02061688  0.23861718  0.73475362     0.09400
C207        C  0.49684563  0.23831576  0.79678908    -0.54100
C208        C  0.49730177  0.26080986  0.77926974     0.09900
H209        H  0.45601492  0.20400915  0.75463914     0.14500
H210        H  0.49649885  0.27426818  0.72739059     0.00200
H211        H  0.03585286  0.20225330  0.75104612     0.14800
H212        H  0.49549518  0.23836233  0.82314119     0.14600
C213        C  0.25036115  0.03005298  0.73066690     0.86400
C214        C  0.22725208  0.02681911  0.75477947    -0.53900
C215        C  0.22708245  0.50400411  0.77168096     0.09300
C216        C  0.25126932  0.48694531  0.76447513     0.20200
C217        C  0.27414994  0.02716701  0.75333299    -0.54600
C218        C  0.27514083  0.50477091  0.77107979     0.08200
C219        C  0.25027316  0.50526669  0.70974426    -0.54100
C220        C  0.25091469  0.48276681  0.72701412     0.09900
H221        H  0.21258703  0.04146782  0.75903167     0.14500
H222        H  0.25154996  0.46879821  0.77860798     0.00200
H223        H  0.28894883  0.04199558  0.75597896     0.14800
H224        H  0.25003996  0.50573014  0.68328928     0.14600
C225        C  0.09172073  0.49646831  0.11033711     0.01200
C226        C  0.11274373  0.47919010  0.10529682     0.04000
C227        C  0.13528171  0.48031380  0.12504292    -0.12000
C228        C  0.13676857  0.49810254  0.15069742     0.23300
C229        C  0.11543602  0.01435911  0.15696645    -0.12600
C230        C  0.09308743  0.01388543  0.13658955     0.04700
C231        C  0.16067229  0.49912736  0.17150339     0.27100
C232        C  0.16183107  0.48466546  0.20040899    -0.13300
C233        C  0.18345621  0.48720138  0.22156243     0.05200
C234        C  0.20565917  0.50166061  0.21202679    -0.09300
C235        C  0.20419724  0.51655623  0.18321383     0.06100
C236        C  0.18169839  0.51539181  0.16317481    -0.13600
Br237      Br  0.11711809  0.03774674  0.19335699    -0.05700
Br238      Br  0.11057713  0.45296047  0.07224266    -0.00100
Br239      Br  0.18004033  0.47501964  0.26578185     0.00400
Br240      Br  0.17891282  0.53699912  0.12509020    -0.04000
Br241      Br  0.06531020  0.03827842  0.14362470     0.00500
Br242      Br  0.16431267  0.45741515  0.11705151    -0.03300
Br243      Br  0.13317216  0.46206644  0.21145378    -0.04200
Br244      Br  0.23153035  0.04072027  0.17310007    -0.00200
C245        C  0.29954687  0.50224242  0.21879432     0.01200
C246        C  0.29747877  0.49287932  0.18613878     0.04000
C247        C  0.32011804  0.49018093  0.16645406    -0.12000
C248        C  0.34496911  0.49790929  0.17803130     0.23300
C249        C  0.34727829  0.00661025  0.21011224    -0.12600
C250        C  0.32526405  0.00708865  0.23078917     0.04700
C251        C  0.36852225  0.49735482  0.15619420     0.27100
C252        C  0.38979401  0.48066348  0.16250558    -0.13300
C253        C  0.41265239  0.48183964  0.14318586     0.05200
C254        C  0.41275437  0.49622627  0.11393966    -0.09300
C255        C  0.39143629  0.01291818  0.10788595     0.06100
C256        C  0.37026229  0.01441942  0.12985237    -0.13600
Br257      Br  0.38074391  0.01939095  0.22563104    -0.05700
Br258      Br  0.26445471  0.48372384  0.16626081    -0.00100
Br259      Br  0.44414666  0.46560825  0.15891796     0.00400
Br260      Br  0.34408432  0.04099515  0.12480664    -0.04000
Br261      Br  0.33213812  0.01084150  0.27645978     0.00500
Br262      Br  0.31720259  0.47621265  0.12287557    -0.03300
Br263      Br  0.38751297  0.45562692  0.19711194    -0.04200
Br264      Br  0.39182216  0.03567418  0.07101554    -0.00200
C265        C  0.50435100  0.40694989  0.11651792     0.01200
C266        C  0.48003854  0.39759458  0.12769833     0.04000
C267        C  0.47905008  0.37677990  0.14961529    -0.12000
C268        C  0.50236595  0.36445697  0.15972812     0.23300
C269        C  0.02675433  0.37433627  0.14936504    -0.12600
C270        C  0.02775434  0.39569186  0.12811882     0.04700
C271        C  0.50079945  0.34005237  0.17898297     0.27100
C272        C  0.00702233  0.33930604  0.21212507    -0.13300
C273        C  0.00648936  0.31577969  0.22965398     0.05200
C274        C  0.49623996  0.29305102  0.21499365    -0.09300
C275        C  0.48542783  0.29589052  0.18300336     0.06100
C276        C  0.49067201  0.31784749  0.16422942    -0.13600
Br277      Br  0.05886526  0.35825837  0.16371863    -0.05700
Br278      Br  0.44787343  0.41237975  0.11156605    -0.00100
Br279      Br  0.02036661  0.31702911  0.27339054     0.00400
Br280      Br  0.48348044  0.31750228  0.11790284    -0.04000
Br281      Br  0.06109988  0.40951773  0.11477079     0.00500
Br282      Br  0.44555074  0.36467137  0.16527563    -0.03300
Br283      Br  0.01556366  0.37119874  0.23385127    -0.04200
Br284      Br  0.45889912  0.27289844  0.16577350    -0.00200
C285        C  0.49456007  0.19593012  0.20414774     0.01200
C286        C  0.01864273  0.18756350  0.18971753     0.04000
C287        C  0.01981564  0.16449121  0.17183169    -0.12000
C288        C  0.49671084  0.15071461  0.16508103     0.23300
C289        C  0.47238792  0.16085801  0.17444684    -0.12600
C290        C  0.47111994  0.18380285  0.19271458     0.04700
C291        C  0.49776611  0.12753464  0.14385668     0.27100
C292        C  0.49897672  0.13053564  0.10994881    -0.13300
C293        C  0.50218855  0.10904175  0.08959384     0.05200
C294        C  0.50056635  0.08355979  0.10266153    -0.09300
C295        C  0.99830705  0.08089596  0.13691788     0.06100
C296        C  0.99765472  0.10284032  0.15713273    -0.13600
Br297      Br  0.44067807  0.14370838  0.16020302    -0.05700
Br298      Br  0.04982302  0.20889912  0.19015590    -0.00100
Br299      Br  0.51071347  0.11633259  0.04446874     0.00400
Br300      Br  0.99530876  0.09933210  0.20388463    -0.04000
Br301      Br  0.43743530  0.20062656  0.19392773     0.00500
Br302      Br  0.05308578  0.15172570  0.15623973    -0.03300
Br303      Br  0.49480641  0.16448379  0.09139131    -0.04200
Br304      Br  0.99499808  0.04782634  0.15810066    -0.00200
C305        C  0.09523797  0.41130124  0.00118268     0.01200
C306        C  0.09099902  0.38585359  0.01280322     0.04000
C307        C  0.11006764  0.36683653  0.00809576    -0.12000
C308        C  0.13409505  0.37307517  0.99357886     0.23300
C309        C  0.13897081  0.39824314  0.98278806    -0.12600
C310        C  0.11970584  0.41739608  0.98645932     0.04700
C311        C  0.15441384  0.35298999  0.99058926     0.27100
C312        C  0.17348072  0.35025003  0.01524934    -0.13300
C313        C  0.19187915  0.33022969  0.01355008     0.05200
C314        C  0.19076894  0.31248528  0.98763316    -0.09300
C315        C  0.17103811  0.31472878  0.96361190     0.06100
C316        C  0.15312178  0.33518545  0.96483580    -0.13600
Br317      Br  0.17188071  0.40597214  0.96172017    -0.05700
Br318      Br  0.05999014  0.37623506  0.03709130    -0.00100
Br319      Br  0.21754210  0.32613054  0.04780344     0.00400
Br320      Br  0.12582027  0.33818615  0.93232200    -0.04000
Br321      Br  0.12750551  0.45136035  0.96997701     0.00500
Br322      Br  0.10316563  0.33167634  0.02083486    -0.03300
Br323      Br  0.17309905  0.37292978  0.05244710    -0.04200
Br324      Br  0.16785857  0.28921961  0.92976922    -0.00200
C325        C  0.42401320  0.39581190  0.99954277     0.01200
C326        C  0.42595539  0.37365595  0.01935572     0.04000
C327        C  0.40748167  0.35382272  0.01586027    -0.12000
C328        C  0.38701379  0.35629292  0.99302536     0.23300
C329        C  0.38691830  0.37693402  0.97087215    -0.12600
C330        C  0.40655278  0.39568160  0.97291222     0.04700
C331        C  0.36612593  0.33674533  0.99167374     0.27100
C332        C  0.36639427  0.31789007  0.96714504    -0.13300
C333        C  0.34584072  0.30000148  0.96506828     0.05200
C334        C  0.32516379  0.30077041  0.98782335    -0.09300
C335        C  0.32535178  0.31933680  0.01292559     0.06100
C336        C  0.34602125  0.33706741  0.01507399    -0.13600
Br337      Br  0.36026958  0.37945321  0.93750127    -0.05700
Br338      Br  0.45486818  0.36888249  0.04907985    -0.00100
Br339      Br  0.34565540  0.27503222  0.93036900     0.00400
Br340      Br  0.34724596  0.36145191  0.05055186    -0.04000
Br341      Br  0.41384880  0.41676963  0.93542856     0.00500
Br342      Br  0.41030541  0.32292917  0.04170585    -0.03300
Br343      Br  0.39533443  0.31636772  0.93694716    -0.04200
Br344      Br  0.29733445  0.32072368  0.04441531    -0.00200
C345        C  0.40756174  0.06867231  0.00020246     0.01200
C346        C  0.38570742  0.06553233  0.97945375     0.04000
C347        C  0.36474024  0.08295940  0.98083553    -0.12000
C348        C  0.36624860  0.10454866  0.00142306     0.23300
C349        C  0.38799468  0.10775964  0.02224625    -0.12600
C350        C  0.40858758  0.08986707  0.02173795     0.04700
C351        C  0.34698420  0.12562607  0.99769859     0.27100
C352        C  0.34916028  0.14233009  0.97079511    -0.13300
C353        C  0.33118984  0.16248972  0.96671966     0.05200
C354        C  0.31184149  0.16694226  0.99042847    -0.09300
C355        C  0.30949865  0.15009349  0.01726511     0.06100
C356        C  0.32693920  0.12932203  0.02076353    -0.13600
Br357      Br  0.38985096  0.13710178  0.05094131    -0.05700
Br358      Br  0.38575215  0.03938683  0.94629093    -0.00100
Br359      Br  0.33227956  0.18331300  0.92788322     0.00400
Br360      Br  0.32368903  0.10613898  0.05725680    -0.04000
Br361      Br  0.43796350  0.09469111  0.05093445     0.00500
Br362      Br  0.33415433  0.07776359  0.95380508    -0.03300
Br363      Br  0.37736460  0.13799239  0.93995799    -0.04200
Br364      Br  0.28251264  0.15551730  0.04932499    -0.00200
C365        C  0.07755441  0.08510628  0.99607695     0.01200
C366        C  0.08425004  0.09637802  0.96609755     0.04000
C367        C  0.10433907  0.11478155  0.96469777    -0.12000
C368        C  0.11437297  0.12548316  0.99379353     0.23300
C369        C  0.10454890  0.11678525  0.02412722    -0.12600
C370        C  0.08696162  0.09594395  0.02520012     0.04700
C371        C  0.13609132  0.14462354  0.99262786     0.27100
C372        C  0.16057093  0.13843653  0.00657919    -0.13300
C373        C  0.18022984  0.15719948  0.00885721     0.05200
C374        C  0.17813341  0.18007803  0.99046699    -0.09300
C375        C  0.15466168  0.18499979  0.97311951     0.06100
C376        C  0.13289891  0.16864765  0.97703936    -0.13600
Br377      Br  0.11543766  0.13288852  0.06433450    -0.05700
Br378      Br  0.06427343  0.08866536  0.92753285    -0.00100
Br379      Br  0.20905682  0.15162152  0.03860460     0.00400
Br380      Br  0.09893468  0.17956907  0.96139222    -0.04000
Br381      Br  0.07461115  0.08289148  0.06642541     0.00500
Br382      Br  0.11955835  0.12313347  0.92295829    -0.03300
Br383      Br  0.16813334  0.10369234  0.02019801    -0.04200
Br384      Br  0.15276154  0.21271326  0.94186722    -0.00200
C385        C  0.29693831  0.50029341  0.79510029     0.01200
C386        C  0.31217994  0.47759825  0.79407232     0.04000
C387        C  0.33465306  0.47509457  0.81388286    -0.12000
C388        C  0.34231852  0.49515850  0.83473504     0.23300
C389        C  0.32720429  0.01768815  0.83648576    -0.12600
C390        C  0.30438749  0.02026035  0.81727266     0.04700
C391        C  0.36560787  0.49189610  0.85627441     0.27100
C392        C  0.36222157  0.98217021  0.88774350    -0.13300
C393        C  0.38383305  0.97926710  0.90886710     0.05200
C394        C  0.40980976  0.48602412  0.89832041    -0.09300
C395        C  0.41296671  0.49471651  0.86556187     0.06100
C396        C  0.39091509  0.49759453  0.84491696    -0.13600
Br397      Br  0.33793020  0.04500312  0.86547435    -0.05700
Br398      Br  0.30354758  0.44985868  0.76507838    -0.00100
Br399      Br  0.37577519  0.96695047  0.95239846     0.00400
Br400      Br  0.39496792  0.50956156  0.80063036    -0.04000
Br401      Br  0.28269848  0.05035863  0.82349491     0.00500
Br402      Br  0.35542466  0.44411574  0.81251351    -0.03300
Br403      Br  0.32722292  0.97294893  0.90182667    -0.04200
Br404      Br  0.44676126  0.50432744  0.84801736    -0.00200
C405        C  0.09380505  0.48842867  0.89998422     0.01200
C406        C  0.11230832  0.00886530  0.90087157     0.04000
C407        C  0.13480790  0.00832449  0.88110823    -0.12000
C408        C  0.13934638  0.48724919  0.86028641     0.23300
C409        C  0.12181119  0.46625442  0.86055901    -0.12600
C410        C  0.09936307  0.46666602  0.88070713     0.04700
C411        C  0.16184891  0.48818582  0.83706549     0.27100
C412        C  0.15748331  0.99527430  0.80476519    -0.13300
C413        C  0.17862962  0.99821433  0.78314639     0.05200
C414        C  0.20484236  0.49690893  0.79425882    -0.09300
C415        C  0.20921751  0.48908798  0.82700123     0.06100
C416        C  0.18774153  0.48366409  0.84772675    -0.13600
Br417      Br  0.12889903  0.43683458  0.83351469    -0.05700
Br418      Br  0.10756446  0.03755361  0.92981237    -0.00100
Br419      Br  0.17079178  0.00119336  0.73744803     0.00400
Br420      Br  0.19341515  0.46987466  0.89084818    -0.04000
Br421      Br  0.07815088  0.43625661  0.88484951     0.00500
Br422      Br  0.15923478  0.03674940  0.88196637    -0.03300
Br423      Br  0.12203641  0.00147660  0.78992177    -0.04200
Br424      Br  0.24408067  0.48728544  0.84498720    -0.00200
C425        C  0.49279895  0.07156426  0.88895510     0.01200
C426        C  0.47176600  0.08921126  0.88934597     0.04000
C427        C  0.47231461  0.11114818  0.86925941    -0.12000
C428        C  0.49400079  0.11574715  0.84889905     0.23300
C429        C  0.01430364  0.09727507  0.84679467    -0.12600
C430        C  0.01344944  0.07496706  0.86625524     0.04700
C431        C  0.49573799  0.14009450  0.82988330     0.27100
C432        C  0.48665870  0.14116259  0.79759715    -0.13300
C433        C  0.48867877  0.16416266  0.77948053     0.05200
C434        C  0.49806905  0.18726479  0.79440398    -0.09300
C435        C  0.01126149  0.18402425  0.82441290     0.06100
C436        C  0.00898368  0.16103709  0.84244701    -0.13600
Br437      Br  0.04424885  0.10380781  0.81940469    -0.05700
Br438      Br  0.44183566  0.08305522  0.91694944    -0.00100
Br439      Br  0.48270748  0.16160056  0.73305487     0.00400
Br440      Br  0.02567744  0.15769491  0.88467399    -0.04000
Br441      Br  0.04123651  0.04990480  0.86303410     0.00500
Br442      Br  0.44386922  0.13552358  0.87050676    -0.03300
Br443      Br  0.47267446  0.11034397  0.77784080    -0.04200
Br444      Br  0.03771166  0.20777449  0.83889284    -0.00200
C445        C  0.49820387  0.39838719  0.89848997     0.01200
C446        C  0.00530245  0.40098468  0.86512961     0.04000
C447        C  0.00490637  0.37952198  0.84398288    -0.12000
C448        C  0.49618533  0.35566832  0.85487260     0.23300
C449        C  0.48653345  0.35329999  0.88671667    -0.12600
C450        C  0.48764993  0.37426123  0.90847189     0.04700
C451        C  0.49745704  0.33256681  0.83335264     0.27100
C452        C  0.47769974  0.32776121  0.81011874    -0.13300
C453        C  0.47841781  0.30529400  0.79087705     0.05200
C454        C  0.49832958  0.28667609  0.79573598    -0.09300
C455        C  0.01897875  0.29214347  0.81833665     0.06100
C456        C  0.01838776  0.31478824  0.83715008    -0.13600
Br457      Br  0.47117009  0.32098811  0.90005287    -0.05700
Br458      Br  0.01558288  0.43360317  0.84658979    -0.00100
Br459      Br  0.45186225  0.30096672  0.75809596     0.00400
Br460      Br  0.04603517  0.32187501  0.86820147    -0.04000
Br461      Br  0.47276914  0.36921392  0.95108901     0.00500
Br462      Br  0.01619986  0.38280784  0.79924117    -0.03300
Br463      Br  0.44905834  0.35175979  0.80563322    -0.04200
Br464      Br  0.04936880  0.27035845  0.82159735    -0.00200
C465        C  0.33783334  0.25784634  0.60877860     0.01200
C466        C  0.35125169  0.28054540  0.61753924     0.04000
C467        C  0.37228013  0.27951549  0.64003037    -0.12000
C468        C  0.38031246  0.25571350  0.65325176     0.23300
C469        C  0.36689350  0.23308243  0.64419212    -0.12600
C470        C  0.34566211  0.23419408  0.62222297     0.04700
C471        C  0.40380118  0.25402211  0.67505823     0.27100
C472        C  0.42913104  0.25373814  0.66152699    -0.13300
C473        C  0.45141140  0.25049380  0.68163998     0.05200
C474        C  0.44858140  0.24606303  0.71549029    -0.09300
C475        C  0.42293974  0.24673373  0.72904986     0.06100
C476        C  0.40083619  0.25122966  0.70897008    -0.13600
Br477      Br  0.37830763  0.20030691  0.66087343    -0.05700
Br478      Br  0.34123812  0.31282426  0.59804277    -0.00100
Br479      Br  0.48549657  0.25119453  0.66179463     0.00400
Br480      Br  0.36620552  0.25344051  0.72765970    -0.04000
Br481      Br  0.32776581  0.20309326  0.60932156     0.00500
Br482      Br  0.39051584  0.31052500  0.65232780    -0.03300
Br483      Br  0.43302847  0.25656626  0.61485203    -0.04200
Br484      Br  0.41763975  0.24264325  0.77541609    -0.00200
C485        C  0.04222502  0.24370681  0.71062828     0.01200
C486        C  0.05845757  0.26576387  0.71300469     0.04000
C487        C  0.08149445  0.26772095  0.69416937    -0.12000
C488        C  0.08778847  0.24858727  0.67132313     0.23300
C489        C  0.07063718  0.22771919  0.66677444    -0.12600
C490        C  0.04827214  0.22500425  0.68661425     0.04700
C491        C  0.11165875  0.25137390  0.65070051     0.27100
C492        C  0.11082735  0.26725536  0.62306910    -0.13300
C493        C  0.13332315  0.27055855  0.60369541     0.05200
C494        C  0.15709256  0.25742939  0.61132636    -0.09300
C495        C  0.15781195  0.24170933  0.63955426     0.06100
C496        C  0.13518546  0.23877416  0.65906067    -0.13600
Br497      Br  0.07771207  0.20311106  0.63273248    -0.05700
Br498      Br  0.04984614  0.29379861  0.74139218    -0.00100
Br499      Br  0.13075484  0.29379779  0.56710126     0.00400
Br500      Br  0.13599625  0.21697574  0.69708827    -0.04000
Br501      Br  0.02540820  0.19601713  0.67923496     0.00500
Br502      Br  0.10492406  0.29663052  0.69956454    -0.03300
Br503      Br  0.07829002  0.28415691  0.61158071    -0.04200
Br504      Br  0.18897740  0.22269936  0.65099178    -0.00200
C505        C  0.25410147  0.16848211  0.61117557     0.01200
C506        C  0.25653570  0.17261895  0.64543879     0.04000
C507        C  0.25632128  0.15158564  0.66725822    -0.12000
C508        C  0.25478273  0.12630178  0.65543295     0.23300
C509        C  0.25413360  0.12183726  0.62174566    -0.12600
C510        C  0.25460920  0.14245271  0.59964312     0.04700
C511        C  0.25419829  0.10376616  0.67778262     0.27100
C512        C  0.27695472  0.08892809  0.68204960    -0.13300
C513        C  0.27554371  0.06448097  0.69682886     0.05200
C514        C  0.25134366  0.05509705  0.70983573    -0.09300
C515        C  0.22829259  0.06902901  0.70136847     0.06100
C516        C  0.22990886  0.09377214  0.68755887    -0.13600
Br517      Br  0.25225438  0.08674911  0.60592941    -0.05700
Br518      Br  0.26244295  0.20637520  0.66380963    -0.00100
Br519      Br  0.30629290  0.04300547  0.69313689     0.00400
Br520      Br  0.19838996  0.11329307  0.67885989    -0.04000
Br521      Br  0.25804482  0.13296392  0.55400449     0.00500
Br522      Br  0.25780051  0.15717804  0.71370049    -0.03300
Br523      Br  0.30984321  0.10156658  0.66484342    -0.04200
Br524      Br  0.19480365  0.05235939  0.69801055    -0.00200
C525        C  0.25415163  0.34576339  0.60778397     0.01200
C526        C  0.24518971  0.37040494  0.59727732     0.04000
C527        C  0.24520988  0.39133352  0.61890897    -0.12000
C528        C  0.25388422  0.38828499  0.65118248     0.23300
C529        C  0.26294004  0.36417617  0.66187787    -0.12600
C530        C  0.26360899  0.34309244  0.64023969     0.04700
C531        C  0.25433022  0.41098936  0.67324944     0.27100
C532        C  0.27486242  0.42890899  0.67091358    -0.13300
C533        C  0.27379160  0.45210889  0.68849792     0.05200
C534        C  0.25278083  0.45712170  0.71019304    -0.09300
C535        C  0.23320359  0.43802688  0.71416986     0.06100
C536        C  0.23346066  0.41560623  0.69478731    -0.13600
Br537      Br  0.27457454  0.36033003  0.70641516    -0.05700
Br538      Br  0.23219192  0.37690132  0.55353843    -0.00100
Br539      Br  0.30201390  0.47633373  0.68314995     0.00400
Br540      Br  0.20455222  0.39163061  0.69617775    -0.04000
Br541      Br  0.27955677  0.31150522  0.65514117     0.00500
Br542      Br  0.23308418  0.42466937  0.60444045    -0.03300
Br543      Br  0.30425999  0.42163494  0.64277498    -0.04200
Br544      Br  0.20557251  0.44211050  0.74542748    -0.00200
C545        C  0.33204345  0.16842199  0.49193815     0.01200
C546        C  0.32580394  0.14579317  0.47423191     0.04000
C547        C  0.34445924  0.12603862  0.47092594    -0.12000
C548        C  0.37017650  0.12947287  0.48275602     0.23300
C549        C  0.37714728  0.15273565  0.49798625    -0.12600
C550        C  0.35811496  0.17179220  0.50356148     0.04700
C551        C  0.38991508  0.10856236  0.47993678     0.27100
C552        C  0.39775705  0.09494885  0.50808851    -0.13300
C553        C  0.41803599  0.07679244  0.50628556     0.05200
C554        C  0.42941470  0.07091653  0.47600574    -0.09300
C555        C  0.42062489  0.08335211  0.44752754     0.06100
C556        C  0.40152984  0.10278558  0.44960438    -0.13600
Br557      Br  0.41321621  0.15861735  0.51067637    -0.05700
Br558      Br  0.29284218  0.14234711  0.45123505    -0.00100
Br559      Br  0.43016240  0.05957804  0.54522738     0.00400
Br560      Br  0.39183444  0.12186270  0.41108258    -0.04000
Br561      Br  0.36854799  0.20198169  0.52792170     0.00500
Br562      Br  0.33473155  0.09411005  0.45013834    -0.03300
Br563      Br  0.38046884  0.10088066  0.54914565    -0.04200
Br564      Br  0.43458006  0.07336462  0.40578670    -0.00200
C565        C  0.06503995  0.07003660  0.50366632     0.01200
C566        C  0.06300364  0.08820272  0.52913683     0.04000
C567        C  0.08127046  0.10848518  0.53161199    -0.12000
C568        C  0.10270035  0.10979441  0.51006051     0.23300
C569        C  0.10576101  0.09071930  0.48602810    -0.12600
C570        C  0.08666212  0.07135874  0.48224175     0.04700
C571        C  0.12095920  0.13215557  0.51103705     0.27100
C572        C  0.11809900  0.15216655  0.48810349    -0.13300
C573        C  0.13621369  0.17261575  0.48746949     0.05200
C574        C  0.15667843  0.17367604  0.51074861    -0.09300
C575        C  0.15790775  0.15498766  0.53554742     0.06100
C576        C  0.14093962  0.13366559  0.53481040    -0.13600
Br577      Br  0.13583326  0.09172831  0.45757926    -0.05700
Br578      Br  0.03512549  0.08544118  0.56058342    -0.00100
Br579      Br  0.13309646  0.19861566  0.45414899     0.00400
Br580      Br  0.14567698  0.10620410  0.56575174    -0.04000
Br581      Br  0.08932592  0.04774709  0.44617658     0.00500
Br582      Br  0.07617951  0.13541333  0.56326129    -0.03300
Br583      Br  0.08926631  0.15139075  0.45747603    -0.04200
Br584      Br  0.18119281  0.15999707  0.57223393    -0.00200
C585        C  0.16366316  0.34363464  0.49857505     0.01200
C586        C  0.15213667  0.34857514  0.46802528     0.04000
C587        C  0.13199263  0.36673695  0.46541100    -0.12000
C588        C  0.12456638  0.38115896  0.49297198     0.23300
C589        C  0.13687742  0.37677523  0.52335495    -0.12600
C590        C  0.15590279  0.35746110  0.52630762     0.04700
C591        C  0.10376665  0.40078386  0.48991948     0.27100
C592        C  0.10844429  0.42337401  0.47188815    -0.13300
C593        C  0.08814837  0.44115685  0.46717174     0.05200
C594        C  0.06411729  0.43795942  0.48357314    -0.09300
C595        C  0.05980168  0.41581673  0.50272291     0.06100
C596        C  0.07909479  0.39664234  0.50441968    -0.13600
Br597      Br  0.12786199  0.39720220  0.56093103    -0.05700
Br598      Br  0.16457613  0.33107094  0.42950090    -0.00100
Br599      Br  0.09296579  0.46942299  0.43730219     0.00400
Br600      Br  0.07152300  0.36447282  0.52597727    -0.04000
Br601      Br  0.17062265  0.34927836  0.56845681     0.00500
Br602      Br  0.11423480  0.37133316  0.42416490    -0.03300
Br603      Br  0.14278734  0.43026166  0.45412150    -0.04200
Br604      Br  0.02797747  0.41200009  0.52761694    -0.00200
C605        C  0.43212372  0.43686209  0.46456186     0.01200
C606        C  0.41355020  0.43139693  0.43993929     0.04000
C607        C  0.39402961  0.41274734  0.44537994    -0.12000
C608        C  0.39378459  0.39891380  0.47484743     0.23300
C609        C  0.41224104  0.40434813  0.49941134    -0.12600
C610        C  0.43105022  0.42360636  0.49453642     0.04700
C611        C  0.37426248  0.37842818  0.48029096     0.27100
C612        C  0.35052979  0.38421557  0.49580441    -0.13300
C613        C  0.33308458  0.36442322  0.50402903     0.05200
C614        C  0.33807511  0.33883199  0.49392799    -0.09300
C615        C  0.36260258  0.33303934  0.47914474     0.06100
C616        C  0.38059361  0.35289208  0.47266562    -0.13600
Br617      Br  0.41121160  0.38566563  0.54007534    -0.05700
Br618      Br  0.41467862  0.44960978  0.39912245    -0.00100
Br619      Br  0.30423031  0.37256978  0.53265411     0.00400
Br620      Br  0.41427797  0.34541584  0.45334436    -0.04000
Br621      Br  0.45429560  0.43291412  0.52982234     0.00500
Br622      Br  0.36696867  0.40660337  0.41330775    -0.03300
Br623      Br  0.34207270  0.41948172  0.50585276    -0.04200
Br624      Br  0.37281982  0.29841252  0.46771194    -0.00200
C625        C  0.15351001  0.25236809  0.40016925     0.01200
C626        C  0.12894058  0.26369592  0.40838218     0.04000
C627        C  0.10727111  0.26133046  0.38725633    -0.12000
C628        C  0.10916964  0.24662534  0.35871467     0.23300
C629        C  0.13292633  0.23430021  0.35109447    -0.12600
C630        C  0.15509551  0.23729268  0.37142400     0.04700
C631        C  0.08615328  0.24443962  0.33647640     0.27100
C632        C  0.06636376  0.22615139  0.34248471    -0.13300
C633        C  0.04449524  0.22438880  0.32147331     0.05200
C634        C  0.04185778  0.24152937  0.29484181    -0.09300
C635        C  0.06307074  0.25790474  0.28715549     0.06100
C636        C  0.08459643  0.26010278  0.30858274    -0.13600
Br637      Br  0.13466093  0.21275251  0.31288237    -0.05700
Br638      Br  0.12338571  0.28192876  0.44888583    -0.00100
Br639      Br  0.01959837  0.19678324  0.32761186     0.00400
Br640      Br  0.11256037  0.28403626  0.29936948    -0.04000
Br641      Br  0.18657111  0.21850931  0.36071097     0.00500
Br642      Br  0.07457741  0.27832587  0.39726990    -0.03300
Br643      Br  0.06978124  0.20299531  0.37899947    -0.04200
Br644      Br  0.06532331  0.27349278  0.24465055    -0.00200
C645        C  0.44873978  0.24984278  0.29354073     0.01200
C646        C  0.45167455  0.25126027  0.32787102     0.04000
C647        C  0.42934714  0.25290384  0.34818349    -0.12000
C648        C  0.40402032  0.25435173  0.33445539     0.23300
C649        C  0.40128042  0.25593598  0.30043400    -0.12600
C650        C  0.42345816  0.25396896  0.28016462     0.04700
C651        C  0.38014948  0.25436411  0.35549802     0.27100
C652        C  0.36817585  0.23091824  0.36433265    -0.13300
C653        C  0.34522930  0.23083668  0.38344002     0.05200
C654        C  0.33382579  0.25418727  0.39333008    -0.09300
C655        C  0.34546750  0.27762685  0.38402046     0.06100
C656        C  0.36865807  0.27772816  0.36538701    -0.13600
Br657      Br  0.36684056  0.26088242  0.28175098    -0.05700
Br658      Br  0.48580856  0.25232152  0.34775829    -0.00100
Br659      Br  0.32973209  0.19875126  0.39698210     0.00400
Br660      Br  0.38498574  0.30985563  0.35380993    -0.04000
Br661      Br  0.41920498  0.25966290  0.23421897     0.00500
Br662      Br  0.43320102  0.25309649  0.39498541    -0.03300
Br663      Br  0.38345022  0.19888676  0.35049183    -0.04200
Br664      Br  0.32980664  0.30962346  0.39746014    -0.00200
C665        C  0.25119140  0.45459127  0.29290820     0.01200
C666        C  0.26666726  0.44984952  0.32118261     0.04000
C667        C  0.26457207  0.42644333  0.33816373    -0.12000
C668        C  0.24626497  0.40783887  0.32820609     0.23300
C669        C  0.23231450  0.41134359  0.29898069    -0.12600
C670        C  0.23626701  0.43366466  0.28005474     0.04700
C671        C  0.24212580  0.38468918  0.34886168     0.27100
C672        C  0.25414209  0.36121562  0.34091729    -0.13300
C673        C  0.25320143  0.34035608  0.36284413     0.05200
C674        C  0.24180225  0.34342262  0.39416467    -0.09300
C675        C  0.22971021  0.36733824  0.40182812     0.06100
C676        C  0.22882961  0.38722723  0.37860107    -0.13600
Br677      Br  0.20701658  0.38574288  0.28556497    -0.05700
Br678      Br  0.29277318  0.47409211  0.33582489    -0.00100
Br679      Br  0.26967332  0.30855287  0.34995638     0.00400
Br680      Br  0.21025940  0.41879946  0.38777754    -0.04000
Br681      Br  0.22315644  0.43257412  0.23591139     0.00500
Br682      Br  0.28671452  0.41960186  0.37558104    -0.03300
Br683      Br  0.27356254  0.35836103  0.30075494    -0.04200
Br684      Br  0.21520318  0.37454024  0.44431127    -0.00200
C685        C  0.24421910  0.05206126  0.30455932     0.01200
C686        C  0.26554112  0.06288193  0.32223799     0.04000
C687        C  0.26274717  0.08640040  0.33899666    -0.12000
C688        C  0.23851665  0.09931456  0.33899273     0.23300
C689        C  0.21663433  0.08747744  0.32449286    -0.12600
C690        C  0.21900700  0.06284588  0.31067111     0.04700
C691        C  0.23546565  0.12344245  0.35816449     0.27100
C692        C  0.22296864  0.12282340  0.38873339    -0.13300
C693        C  0.22219442  0.14499770  0.40822788     0.05200
C694        C  0.23584908  0.16752220  0.39860075    -0.09300
C695        C  0.24714684  0.16847431  0.36711395     0.06100
C696        C  0.24630841  0.14666727  0.34678854    -0.13600
Br697      Br  0.18311379  0.10475126  0.32431269    -0.05700
Br698      Br  0.29695362  0.04374684  0.33002026    -0.00100
Br699      Br  0.20090230  0.14433774  0.44716248     0.00400
Br700      Br  0.26033596  0.14835998  0.30325274    -0.04000
Br701      Br  0.18777761  0.04173354  0.31042059     0.00500
Br702      Br  0.29189824  0.10053105  0.36346324    -0.03300
Br703      Br  0.20759883  0.09125232  0.40466348    -0.04200
Br704      Br  0.26506857  0.19882439  0.35159216    -0.00200
O705        O  0.23952264  0.71240268  0.41176956    -0.80300
O706        O  0.25074371  0.71390673  0.59758902    -0.81800
O707        O  0.28782341  0.68206387  0.50109829    -0.78800
O708        O  0.20154323  0.68533206  0.50833683    -0.77200
O709        O  0.17051026  0.71693330  0.50813512    -0.79000
O710        O  0.31976256  0.71239649  0.49675964    -0.79900
O711        O  0.24830778  0.68427066  0.55745982    -0.81300
O712        O  0.24218859  0.68265209  0.45247466    -0.81600
Eu713      Eu  0.24557467  0.70487072  0.50462757     2.39200
O714        O  0.22034000  0.73115061  0.53885303    -0.89100
O715        O  0.27147753  0.72961950  0.46938739    -0.92700
C716        C  0.23937192  0.68900543  0.42232813     1.02000
C717        C  0.25098221  0.69034080  0.58752434     1.01800
C718        C  0.31197608  0.68888315  0.49727819     1.01800
C719        C  0.17751571  0.69320196  0.50900993     0.99600
H720        H  0.28494310  0.71948509  0.54984654     0.29400
O721        O  0.27351141  0.73028269  0.53698080    -1.01500
H722        H  0.20719658  0.71991319  0.45931228     0.29400
O723        O  0.21906316  0.73070785  0.47150540    -1.04000
O724        O  0.24954431  0.80045700  0.59626043    -0.81200
O725        O  0.24167143  0.79879711  0.41009324    -0.80800
O726        O  0.32284695  0.75670404  0.55438213    -0.79200
O727        O  0.17265223  0.75740078  0.55753267    -0.82500
O728        O  0.17108822  0.75425225  0.45362913    -0.80400
O729        O  0.32010190  0.75437348  0.44791142    -0.79000
O730        O  0.29292087  0.82681260  0.49626487    -0.80600
O731        O  0.20747659  0.83024769  0.50273547    -0.82500
O732        O  0.32358502  0.79543575  0.50069070    -0.79200
O733        O  0.17474438  0.80007823  0.50219987    -0.81900
O734        O  0.29243848  0.75864589  0.59546452    -0.77600
O735        O  0.28822159  0.75410298  0.40823608    -0.77700
O736        O  0.19991491  0.75598272  0.41142189    -0.77300
O737        O  0.20349889  0.75793630  0.59789110    -0.80800
O738        O  0.25532486  0.82862977  0.55450163    -0.80200
O739        O  0.24728795  0.82930232  0.44927672    -0.78600
Eu740      Eu  0.24791565  0.75702448  0.57128942     2.39800
Eu741      Eu  0.24469876  0.75566256  0.43580093     2.39600
Eu742      Eu  0.29964411  0.75482848  0.50167503     2.38400
Eu743      Eu  0.19455111  0.75750327  0.50522996     2.39900
Eu744      Eu  0.24927718  0.80746919  0.50200033     2.39800
O745        O  0.22048508  0.78253292  0.47036414    -0.93000
O746        O  0.27471479  0.78128287  0.53577218    -0.91900
C747        C  0.25311795  0.82342759  0.58498364     1.02200
C748        C  0.24362016  0.82247096  0.41945551     1.00900
C749        C  0.31625464  0.75819354  0.58468415     1.00300
C750        C  0.17930235  0.75777967  0.58773149     1.02300
C751        C  0.17635108  0.75453833  0.42304188     1.01200
C752        C  0.31246445  0.75405544  0.41796140     1.00100
C753        C  0.31691534  0.81909308  0.49748654     1.00100
C754        C  0.18324128  0.82335372  0.50177485     1.02700
H755        H  0.28439786  0.79117654  0.45347573     0.30100
O756        O  0.27357786  0.78082988  0.46765833    -1.05100
H757        H  0.21170803  0.79493845  0.55047791     0.32200
O758        O  0.22212319  0.78352517  0.53727633    -1.07700
N759        N  0.03644736  0.50458881  0.48729262    -0.36700
N760        N  0.49753397  0.96603982  0.47049299    -0.57300
N761        N  0.45771516  0.50489686  0.46573532    -0.36700
N762        N  0.49689908  0.54354139  0.48464992    -0.57300
C763        C  0.04937463  0.98268638  0.49509433     0.26800
C764        C  0.04934537  0.52416325  0.50196991     0.26800
C765        C  0.44275691  0.98351301  0.46822680     0.26800
C766        C  0.44229407  0.52493142  0.47381160     0.26800
C767        C  0.01978188  0.95243324  0.46602347     0.35500
C768        C  0.47784242  0.95221987  0.45720679     0.35500
C769        C  0.01853977  0.55886696  0.48691039     0.35500
C770        C  0.47666547  0.55892709  0.47622294     0.35500
C771        C  0.07061812  0.98831202  0.51514121    -0.22000
C772        C  0.07064582  0.51461975  0.51916413    -0.22000
C773        C  0.41745867  0.99010729  0.47713807    -0.22000
C774        C  0.41706070  0.51623738  0.48007929    -0.22000
C775        C  0.01413335  0.92994539  0.44923864    -0.23100
C776        C  0.48736570  0.92954494  0.44430184    -0.23100
C777        C  0.01184475  0.58406090  0.47992880    -0.23100
C778        C  0.48521802  0.58411433  0.47353233    -0.23100
C779        C  0.04388897  0.95830200  0.48133527    -0.18400
C780        C  0.04356121  0.55050006  0.49755158    -0.18400
C781        C  0.45018395  0.55093966  0.47440310    -0.18400
C782        C  0.45120097  0.95829273  0.46136376    -0.18400
H783        H  0.08498555  0.97499178  0.52473276     0.14500
H784        H  0.08508001  0.52550934  0.53276401     0.14500
H785        H  0.40090019  0.97739430  0.48065781     0.14500
H786        H  0.40009487  0.52754580  0.48662340     0.14500
H787        H  0.02761127  0.91471567  0.44291721     0.12800
H788        H  0.47614440  0.91424248  0.43309524     0.12800
H789        H  0.02455175  0.60071790  0.48015805     0.12800
H790        H  0.47352768  0.60090227  0.46801397     0.12800
H791        H  0.02209870  0.50642025  0.46937363     0.26000
H792        H  0.47668165  0.50619289  0.45661570     0.26000
O793        O  0.49952932  0.94346272  0.91170288    -0.80300
O794        O  0.50291976  0.95070765  0.09956863    -0.81800
O795        O  0.05011685  0.92175203  0.00127065    -0.78800
O796        O  0.46634343  0.91296609  0.00558819    -0.77200
O797        O  0.43154595  0.94062934  0.00431023    -0.79000
O798        O  0.07918643  0.95469635  0.00487115    -0.79900
O799        O  0.50697995  0.91901661  0.06102992    -0.81300
O800        O  0.50426707  0.91490095  0.95322045    -0.81600
Eu801      Eu  0.50586538  0.93861171  0.00611954     2.39200
O802        O  0.47750645  0.96295992  0.03957853    -0.89100
O803        O  0.03014743  0.96538046  0.97148120    -0.92700
C804        C  0.50094407  0.92025821  0.92262629     1.02000
C805        C  0.50504997  0.92690216  0.09080177     1.01800
C806        C  0.07362664  0.93059261  0.00253364     1.01800
C807        C  0.44172539  0.91783248  0.00402044     0.99600
H808        H  0.04195035  0.95807673  0.05210977     0.29400
O809        O  0.03005235  0.96767178  0.03841390    -1.01500
H810        H  0.46649046  0.94939383  0.95965655     0.29400
O811        O  0.47694636  0.96123291  0.97231583    -1.04000
O812        O  0.50319940  0.53777510  0.09200225    -0.81200
O813        O  0.49747443  0.52784809  0.90582497    -0.80800
O814        O  0.07597894  0.99810780  0.05646638    -0.79200
O815        O  0.42688600  0.98871138  0.05931323    -0.82500
O816        O  0.42678594  0.98601480  0.95234178    -0.80400
O817        O  0.07727801  0.99206885  0.95286467    -0.79000
O818        O  0.03530896  0.56749902  0.99580467    -0.80600
O819        O  0.45261685  0.55895805  0.99755630    -0.82500
O820        O  0.07013310  0.54000505  0.00004398    -0.79200
O821        O  0.42346559  0.52586769  0.00248609    -0.81900
O822        O  0.04573248  0.99504733  0.09737645    -0.77600
O823        O  0.04714540  0.48626026  0.91189391    -0.77700
O824        O  0.45653950  0.48453354  0.91123859    -0.77300
O825        O  0.45831840  0.99497974  0.09847055    -0.80800
O826        O  0.49638586  0.56498600  0.04974501    -0.80200
O827        O  0.49363391  0.55949128  0.94416212    -0.78600
Eu828      Eu  0.50179379  0.99287355  0.07109511     2.39800
Eu829      Eu  0.50139724  0.98681236  0.93583674     2.39600
Eu830      Eu  0.05387123  0.99497718  0.00367150     2.38400
Eu831      Eu  0.44844408  0.98538358  0.00535179     2.39900
Eu832      Eu  0.49653501  0.54082930  0.99891161     2.39800
O833        O  0.47253523  0.51108217  0.96863107    -0.93000
O834        O  0.02532818  0.51973984  0.03499934    -0.91900
C835        C  0.50017046  0.56062927  0.08020462     1.02200
C836        C  0.49461860  0.55154656  0.91443960     1.00900
C837        C  0.06956176  0.99681805  0.08676836     1.00300
C838        C  0.43409377  0.99296808  0.08912473     1.02300
C839        C  0.43263991  0.48536431  0.92191213     1.01200
C840        C  0.07107859  0.48872873  0.92280396     1.00100
C841        C  0.05994597  0.56269001  0.99715363     1.00100
C842        C  0.42922201  0.54993755  0.99985011     1.02700
H843        H  0.03575561  0.52750471  0.95291923     0.30100
O844        O  0.02569628  0.51651076  0.96718244    -1.05100
H845        H  0.46157293  0.52606346  0.04832358     0.32200
O846        O  0.47304023  0.51513670  0.03577960    -1.07700
N847        N  0.29171709  0.73642038  0.98436348    -0.36700
N848        N  0.24805109  0.70142700  0.98620971    -0.57300
N849        N  0.21228205  0.74394267  0.98618368    -0.36700
N850        N  0.25551983  0.77906340  0.98365628    -0.57300
C851        C  0.30358323  0.71441128  0.99380292     0.26800
C852        C  0.30760508  0.75609644  0.99286547     0.26800
C853        C  0.19694842  0.72451646  0.99681025     0.26800
C854        C  0.20074888  0.76613323  0.99520117     0.26800
C855        C  0.26760342  0.68515388  0.97857943     0.35500
C856        C  0.22545503  0.68937273  0.97857797     0.35500
C857        C  0.27796218  0.79148791  0.97652314     0.35500
C858        C  0.23575436  0.79549560  0.97718093     0.35500
C859        C  0.32749890  0.72009995  0.00828137    -0.22000
C860        C  0.33003016  0.74649717  0.00774517    -0.22000
C861        C  0.17552022  0.73448151  0.01325983    -0.22000
C862        C  0.17780974  0.76086207  0.01196713    -0.22000
C863        C  0.25752770  0.66264954  0.96563861    -0.23100
C864        C  0.23069524  0.66547486  0.96517142    -0.23100
C865        C  0.27247530  0.81596273  0.96499979    -0.23100
C866        C  0.24560402  0.81851928  0.96546543    -0.23100
C867        C  0.29394575  0.68945430  0.98723506    -0.18400
C868        C  0.30303601  0.78219474  0.98506556    -0.18400
C869        C  0.20948616  0.79078912  0.98595322    -0.18400
C870        C  0.20062231  0.69843158  0.98837767    -0.18400
H871        H  0.34176610  0.70663518  0.01777388     0.14500
H872        H  0.34665851  0.75735036  0.01673725     0.14500
H873        H  0.15943639  0.72388163  0.02394938     0.14500
H874        H  0.16394020  0.77458642  0.02163018     0.14500
H875        H  0.26833788  0.64576585  0.95824905     0.12800
H876        H  0.21664963  0.65109183  0.95749049     0.12800
H877        H  0.28640578  0.83076177  0.95839739     0.12800
H878        H  0.23466423  0.83564382  0.95924039     0.12800
H879        H  0.27518383  0.73776399  0.96950358     0.26000
H880        H  0.22772008  0.74224774  0.96975921     0.26000
C881        C  0.49432615  0.71872491  0.22870493     0.86400
C882        C  0.01716467  0.71822602  0.25252147    -0.53900
C883        C  0.01907167  0.73919218  0.27207424     0.09300
C884        C  0.49631648  0.75883637  0.26731349     0.20200
C885        C  0.47041387  0.72171065  0.25166237    -0.54600
C886        C  0.47102518  0.74291937  0.27140050     0.09400
C887        C  0.49723494  0.74457638  0.21123105    -0.54100
C888        C  0.49688134  0.76616980  0.23046685     0.09900
H889        H  0.03107978  0.70249171  0.25403395     0.14500
H890        H  0.49642994  0.77482278  0.28464109     0.00200
H891        H  0.45491042  0.70763157  0.25398494     0.14800
H892        H  0.50005933  0.74530160  0.18508891     0.14600
C893        C  0.24767218  0.52889193  0.28120719     0.86400
C894        C  0.27302108  0.52822702  0.26024323    -0.53900
C895        C  0.27565868  0.00678998  0.24027053     0.09300
C896        C  0.25163451  0.98864330  0.24280272     0.20200
C897        C  0.22625317  0.52722834  0.25512018    -0.54600
C898        C  0.22735371  0.00596203  0.23582040     0.09400
C899        C  0.24700475  0.00264666  0.29882210    -0.54100
C900        C  0.24975384  0.98142704  0.27920489     0.09900
H901        H  0.28734949  0.54363339  0.26052131     0.14500
H902        H  0.25367440  0.97179558  0.22712498     0.00200
H903        H  0.21134987  0.54180285  0.25141100     0.14800
H904        H  0.24450272  0.00123532  0.32501875     0.14600
C905        C  0.49700428  0.71356188  0.77607838     0.86400
C906        C  0.47240345  0.71725872  0.75462569    -0.53900
C907        C  0.47186828  0.73925299  0.73647694     0.09300
C908        C  0.49648003  0.75634381  0.74193986     0.20200
C909        C  0.02039176  0.71667812  0.75312370    -0.54600
C910        C  0.02047879  0.73865518  0.73493239     0.09400
C911        C  0.49675763  0.73838920  0.79683632    -0.54100
C912        C  0.49717549  0.76086722  0.77928218     0.09900
H913        H  0.45598730  0.70399282  0.75475912     0.14500
H914        H  0.49630098  0.77428896  0.72738081     0.00200
H915        H  0.03587443  0.70242761  0.75147061     0.14800
H916        H  0.49541142  0.73845913  0.82318778     0.14600
C917        C  0.25062095  0.52978658  0.73048449     0.86400
C918        C  0.22738128  0.52666134  0.75444812    -0.53900
C919        C  0.22708813  0.00412897  0.77190844     0.09300
C920        C  0.25129241  0.98716228  0.76454751     0.20200
C921        C  0.27430023  0.52684976  0.75329755    -0.54600
C922        C  0.27513012  0.00506395  0.77107339     0.08200
C923        C  0.25001326  0.00554561  0.70987252    -0.54100
C924        C  0.25079207  0.98301714  0.72708410     0.09900
H925        H  0.21270305  0.54135141  0.75843559     0.14500
H926        H  0.25166583  0.96900461  0.77865388     0.00200
H927        H  0.28911711  0.54164576  0.75606065     0.14800
H928        H  0.24963917  0.00604357  0.68342091     0.14600
C929        C  0.09168924  0.99634960  0.11040139     0.01200
C930        C  0.11265552  0.97901129  0.10535566     0.04000
C931        C  0.13521010  0.98007391  0.12508137    -0.12000
C932        C  0.13675089  0.99783255  0.15076718     0.23300
C933        C  0.11542333  0.51459748  0.15685436    -0.12600
C934        C  0.09307583  0.51404136  0.13648754     0.04700
C935        C  0.16069083  0.99882045  0.17152917     0.27100
C936        C  0.16193138  0.98425530  0.20034926    -0.13300
C937        C  0.18355444  0.98681228  0.22150983     0.05200
C938        C  0.20570149  0.00137904  0.21203356    -0.09300
C939        C  0.20419055  0.01631509  0.18325868     0.06100
C940        C  0.18167214  0.01515742  0.16324969    -0.13600
Br941      Br  0.11706087  0.53805373  0.19317716    -0.05700
Br942      Br  0.11036064  0.95276428  0.07234036    -0.00100
Br943      Br  0.18018179  0.97452383  0.26568434     0.00400
Br944      Br  0.17880328  0.03686635  0.12526913    -0.04000
Br945      Br  0.06524664  0.53838946  0.14347271     0.00500
Br946      Br  0.16419539  0.95714468  0.11699650    -0.03300
Br947      Br  0.13339177  0.96147546  0.21126746    -0.04200
Br948      Br  0.23155467  0.54094414  0.17305932    -0.00200
C949        C  0.29956479  0.00198727  0.21875466     0.01200
C950        C  0.29747663  0.99260393  0.18611004     0.04000
C951        C  0.32010684  0.98988223  0.16641881    -0.12000
C952        C  0.34496042  0.99760763  0.17798281     0.23300
C953        C  0.34726349  0.50691904  0.21016191    -0.12600
C954        C  0.32524135  0.50737423  0.23083411     0.04700
C955        C  0.36849057  0.99707847  0.15612655     0.27100
C956        C  0.38977825  0.98040717  0.16241798    -0.13300
C957        C  0.41264928  0.98167000  0.14314448     0.05200
C958        C  0.41271798  0.99605303  0.11389770    -0.09300
C959        C  0.39150319  0.51313243  0.10793923     0.06100
C960        C  0.37031681  0.51466439  0.12988896    -0.13600
Br961      Br  0.38070849  0.51974388  0.22568781    -0.05700
Br962      Br  0.26444032  0.98345281  0.16626007    -0.00100
Br963      Br  0.44421079  0.96564168  0.15900354     0.00400
Br964      Br  0.34413725  0.54123151  0.12475653    -0.04000
Br965      Br  0.33210850  0.51114676  0.27650562     0.00500
Br966      Br  0.31718258  0.97588988  0.12285277    -0.03300
Br967      Br  0.38751108  0.95529415  0.19693663    -0.04200
Br968      Br  0.39194392  0.53590039  0.07109552    -0.00200
C969        C  0.50439459  0.90682319  0.11653443     0.01200
C970        C  0.48008682  0.89757682  0.12787775     0.04000
C971        C  0.47909236  0.87677714  0.14981652    -0.12000
C972        C  0.50238274  0.86431533  0.15972667     0.23300
C973        C  0.02661821  0.87403738  0.14906890    -0.12600
C974        C  0.02765801  0.89534364  0.12774831     0.04700
C975        C  0.50076287  0.83993233  0.17901335     0.27100
C976        C  0.00691482  0.83931309  0.21218079    -0.13300
C977        C  0.00631599  0.81581276  0.22975798     0.05200
C978        C  0.49607935  0.79299397  0.21510638    -0.09300
C979        C  0.48522035  0.79583158  0.18314239     0.06100
C980        C  0.49048291  0.81776439  0.16433074    -0.13600
Br981      Br  0.05866890  0.85767758  0.16311191    -0.05700
Br982      Br  0.44792038  0.91243380  0.11187010    -0.00100
Br983      Br  0.02010583  0.81710979  0.27353847     0.00400
Br984      Br  0.48313565  0.81743508  0.11804318    -0.04000
Br985      Br  0.06103619  0.90882365  0.11399405     0.00500
Br986      Br  0.44561553  0.86488062  0.16580110    -0.03300
Br987      Br  0.01574721  0.87119045  0.23376703    -0.04200
Br988      Br  0.45868251  0.77281707  0.16597419    -0.00200
C989        C  0.49444956  0.69592503  0.20422166     0.01200
C990        C  0.01858757  0.68754037  0.18998706     0.04000
C991        C  0.01979119  0.66439564  0.17226621    -0.12000
C992        C  0.49669978  0.65077259  0.16507575     0.23300
C993        C  0.47235219  0.66087507  0.17440482    -0.12600
C994        C  0.47103454  0.68378913  0.19272071     0.04700
C995        C  0.49780270  0.62760923  0.14384086     0.27100
C996        C  0.49898753  0.63061955  0.10993398    -0.13300
C997        C  0.50219723  0.60913171  0.08956943     0.05200
C998        C  0.50060333  0.58364640  0.10263541    -0.09300
C999        C  0.99821176  0.58085857  0.13708958     0.06100
C1000       C  0.99755014  0.60276432  0.15737219    -0.13600
Br1001     Br  0.44068111  0.64369310  0.16008077    -0.05700
Br1002     Br  0.04971204  0.70895338  0.19024544    -0.00100
Br1003     Br  0.51066222  0.61644121  0.04443043     0.00400
Br1004     Br  0.99504505  0.59917075  0.20410272    -0.04000
Br1005     Br  0.43732619  0.70056319  0.19389084     0.00500
Br1006     Br  0.05310598  0.65152380  0.15698557    -0.03300
Br1007     Br  0.49473468  0.66456269  0.09139019    -0.04200
Br1008     Br  0.99488025  0.54775543  0.15818844    -0.00200
C1009       C  0.09534507  0.91142808  0.00087703     0.01200
C1010       C  0.09112433  0.88591191  0.01227508     0.04000
C1011       C  0.11026379  0.86697321  0.00754718    -0.12000
C1012       C  0.13432041  0.87333933  0.99320228     0.23300
C1013       C  0.13917747  0.89856027  0.98261675    -0.12600
C1014       C  0.11984563  0.91764425  0.98630264     0.04700
C1015       C  0.15464739  0.85328770  0.99011067     0.27100
C1016       C  0.17358134  0.85035052  0.01488813    -0.13300
C1017       C  0.19184232  0.83021338  0.01321384     0.05200
C1018       C  0.19072896  0.81256734  0.98719158    -0.09300
C1019       C  0.17111173  0.81499753  0.96306240     0.06100
C1020       C  0.15335494  0.83558431  0.96424576    -0.13600
Br1021     Br  0.17215549  0.90645489  0.96180819    -0.05700
Br1022     Br  0.06001903  0.87604088  0.03621205    -0.00100
Br1023     Br  0.21726946  0.82577600  0.04766935     0.00400
Br1024     Br  0.12623491  0.83888998  0.93154248    -0.04000
Br1025     Br  0.12759343  0.95166676  0.96997151     0.00500
Br1026     Br  0.10342683  0.83173448  0.02001558    -0.03300
Br1027     Br  0.17317337  0.87290471  0.05220964    -0.04200
Br1028     Br  0.16780188  0.78952340  0.92919952    -0.00200
C1029       C  0.42407075  0.89565965  0.99958867     0.01200
C1030       C  0.42586519  0.87358104  0.01955309     0.04000
C1031       C  0.40737366  0.85376557  0.01602861    -0.12000
C1032       C  0.38701761  0.85619376  0.99302526     0.23300
C1033       C  0.38707309  0.87676519  0.97076109    -0.12600
C1034       C  0.40676011  0.89545685  0.97281608     0.04700
C1035       C  0.36609669  0.83667655  0.99161376     0.27100
C1036       C  0.36633970  0.81785764  0.96703206    -0.13300
C1037       C  0.34575041  0.80001281  0.96489222     0.05200
C1038       C  0.32505729  0.80079611  0.98761916    -0.09300
C1039       C  0.32526538  0.81931495  0.01276998     0.06100
C1040       C  0.34597281  0.83699642  0.01499601    -0.13600
Br1041     Br  0.36053986  0.87930216  0.93725214    -0.05700
Br1042     Br  0.45461001  0.86888686  0.04953586    -0.00100
Br1043     Br  0.34555119  0.77505661  0.93017650     0.00400
Br1044     Br  0.34721192  0.86129949  0.05056380    -0.04000
Br1045     Br  0.41436393  0.91632278  0.93522132     0.00500
Br1046     Br  0.41001457  0.82296901  0.04209280    -0.03300
Br1047     Br  0.39528848  0.81631293  0.93684428    -0.04200
Br1048     Br  0.29722998  0.82067910  0.04423641    -0.00200
C1049       C  0.40755479  0.56873656  0.00030465     0.01200
C1050       C  0.38575506  0.56561281  0.97945925     0.04000
C1051       C  0.36482540  0.58308840  0.98067707    -0.12000
C1052       C  0.36625656  0.60463347  0.00133916     0.23300
C1053       C  0.38789606  0.60777403  0.02235494    -0.12600
C1054       C  0.40849406  0.58988206  0.02191726     0.04700
C1055       C  0.34696818  0.62569103  0.99763086     0.27100
C1056       C  0.34918726  0.64249403  0.97083279    -0.13300
C1057       C  0.33123615  0.66268314  0.96684997     0.05200
C1058       C  0.31180459  0.66700865  0.99049666    -0.09300
C1059       C  0.30937793  0.65001311  0.01717652     0.06100
C1060       C  0.32683519  0.62924920  0.02060922    -0.13600
Br1061     Br  0.38958597  0.63700496  0.05124203    -0.05700
Br1062     Br  0.38577343  0.53934754  0.94647370    -0.00100
Br1063     Br  0.33246532  0.68372101  0.92820379     0.00400
Br1064     Br  0.32344720  0.60583811  0.05685180    -0.04000
Br1065     Br  0.43772015  0.59457482  0.05138362     0.00500
Br1066     Br  0.33440878  0.57803342  0.95330141    -0.03300
Br1067     Br  0.37736457  0.63819210  0.93994889    -0.04200
Br1068     Br  0.28224458  0.65519782  0.04910367    -0.00200
C1069       C  0.07763652  0.58502010  0.99596910     0.01200
C1070       C  0.08436594  0.59623889  0.96596966     0.04000
C1071       C  0.10445497  0.61463803  0.96454710    -0.12000
C1072       C  0.11446056  0.62538084  0.99362672     0.23300
C1073       C  0.10464695  0.61670413  0.02397321    -0.12600
C1074       C  0.08704895  0.59587555  0.02507583     0.04700
C1075       C  0.13613343  0.64455717  0.99243594     0.27100
C1076       C  0.16062524  0.63840943  0.00636462    -0.13300
C1077       C  0.18022194  0.65722150  0.00870560     0.05200
C1078       C  0.17807958  0.68010587  0.99033458    -0.09300
C1079       C  0.15460231  0.68498734  0.97297547     0.06100
C1080       C  0.13288008  0.66858174  0.97687141    -0.13600
Br1081     Br  0.11554749  0.63283498  0.06415505    -0.05700
Br1082     Br  0.06441997  0.58848522  0.92740767    -0.00100
Br1083     Br  0.20901896  0.65168977  0.03850908     0.00400
Br1084     Br  0.09889500  0.67941563  0.96119902    -0.04000
Br1085     Br  0.07467624  0.58287271  0.06631581     0.00500
Br1086     Br  0.11970102  0.62295464  0.92281024    -0.03300
Br1087     Br  0.16829760  0.60365043  0.01981561    -0.04200
Br1088     Br  0.15263399  0.71271608  0.94174569    -0.00200
C1089       C  0.29702553  0.00057569  0.79497549     0.01200
C1090       C  0.31219426  0.97783511  0.79388662     0.04000
C1091       C  0.33464342  0.97520617  0.81371172    -0.12000
C1092       C  0.34238935  0.99519906  0.83462409     0.23300
C1093       C  0.32700881  0.51756490  0.83660050    -0.12600
C1094       C  0.30419451  0.52002020  0.81737780     0.04700
C1095       C  0.36566056  0.99179661  0.85617412     0.27100
C1096       C  0.36218650  0.48249584  0.88795070    -0.13300
C1097       C  0.38381672  0.47966933  0.90905308     0.05200
C1098       C  0.40981627  0.98576876  0.89826468    -0.09300
C1099       C  0.41300559  0.99462353  0.86558477     0.06100
C1100       C  0.39097743  0.99758561  0.84492109    -0.13600
Br1101     Br  0.33753955  0.54492567  0.86562414    -0.05700
Br1102     Br  0.30352288  0.95020521  0.76474029    -0.00100
Br1103     Br  0.37573637  0.46769782  0.95274561     0.00400
Br1104     Br  0.39507862  0.00981388  0.80076061    -0.04000
Br1105     Br  0.28237200  0.55004188  0.82350221     0.00500
Br1106     Br  0.35528796  0.94415145  0.81225293    -0.03300
Br1107     Br  0.32717716  0.47346908  0.90220827    -0.04200
Br1108     Br  0.44681458  0.00436495  0.84819861    -0.00200
C1109       C  0.09386107  0.98848873  0.89999875     0.01200
C1110       C  0.11230763  0.50875629  0.90092756     0.04000
C1111       C  0.13471466  0.50827797  0.88099636    -0.12000
C1112       C  0.13951498  0.98723915  0.86052515     0.23300
C1113       C  0.12200126  0.96623320  0.86080181    -0.12600
C1114       C  0.09951033  0.96666831  0.88086751     0.04700
C1115       C  0.16199980  0.98817343  0.83730610     0.27100
C1116       C  0.15737516  0.49534113  0.80453530    -0.13300
C1117       C  0.17854990  0.49831177  0.78294503     0.05200
C1118       C  0.20491820  0.99691838  0.79447290    -0.09300
C1119       C  0.20934914  0.98913822  0.82720768     0.06100
C1120       C  0.18790252  0.98367886  0.84795096    -0.13600
Br1121     Br  0.12916815  0.93678188  0.83384153    -0.05700
Br1122     Br  0.10781394  0.53725626  0.93024970    -0.00100
Br1123     Br  0.17071510  0.50150322  0.73728799     0.00400
Br1124     Br  0.19363368  0.96986957  0.89104488    -0.04000
Br1125     Br  0.07834367  0.93623767  0.88506132     0.00500
Br1126     Br  0.15911256  0.53672413  0.88179573    -0.03300
Br1127     Br  0.12193460  0.50154709  0.78966434    -0.04200
Br1128     Br  0.24424486  0.98742963  0.84511982    -0.00200
C1129       C  0.49282913  0.57158919  0.88887145     0.01200
C1130       C  0.47178089  0.58921597  0.88923268     0.04000
C1131       C  0.47233881  0.61115775  0.86915939    -0.12000
C1132       C  0.49407101  0.61580012  0.84889031     0.23300
C1133       C  0.01441377  0.59730527  0.84704732    -0.12600
C1134       C  0.01347466  0.57497299  0.86645158     0.04700
C1135       C  0.49580911  0.64014844  0.82989086     0.27100
C1136       C  0.48677194  0.64120387  0.79758911    -0.13300
C1137       C  0.48875796  0.66421363  0.77949474     0.05200
C1138       C  0.49808789  0.68732947  0.79445224    -0.09300
C1139       C  0.01117969  0.68425681  0.82492842     0.06100
C1140       C  0.00901449  0.66122575  0.84290220    -0.13600
Br1141     Br  0.04436654  0.60374795  0.81964227    -0.05700
Br1142     Br  0.44182272  0.58302138  0.91677970    -0.00100
Br1143     Br  0.48275195  0.66165875  0.73307298     0.00400
Br1144     Br  0.02558968  0.65792710  0.88520568    -0.04000
Br1145     Br  0.04117250  0.54981473  0.86318444     0.00500
Br1146     Br  0.44383862  0.63547463  0.87029497    -0.03300
Br1147     Br  0.47286945  0.61036158  0.77779445    -0.04200
Br1148     Br  0.03729486  0.70824078  0.83973935    -0.00200
C1149       C  0.49823076  0.89830823  0.89855994     0.01200
C1150       C  0.00526295  0.90110631  0.86505187     0.04000
C1151       C  0.00474289  0.87970912  0.84381323    -0.12000
C1152       C  0.49619284  0.85566057  0.85485482     0.23300
C1153       C  0.48670362  0.85319209  0.88675976    -0.12600
C1154       C  0.48780905  0.87412519  0.90855640     0.04700
C1155       C  0.49745568  0.83261013  0.83327530     0.27100
C1156       C  0.47760820  0.82777558  0.81017439    -0.13300
C1157       C  0.47830654  0.80532956  0.79090847     0.05200
C1158       C  0.49824556  0.78673414  0.79569274    -0.09300
C1159       C  0.01879978  0.79237310  0.81813037     0.06100
C1160       C  0.01822035  0.81505531  0.83685965    -0.13600
Br1161     Br  0.47159106  0.82076876  0.90012049    -0.05700
Br1162     Br  0.01585546  0.93369338  0.84669364    -0.00100
Br1163     Br  0.45173158  0.80103092  0.75814738     0.00400
Br1164     Br  0.04596631  0.82228534  0.86772120    -0.04000
Br1165     Br  0.47311871  0.86893197  0.95126051     0.00500
Br1166     Br  0.01596234  0.88307723  0.79905331    -0.03300
Br1167     Br  0.44888079  0.85169961  0.80590231    -0.04200
Br1168     Br  0.04923270  0.77063494  0.82132385    -0.00200
C1169       C  0.33773496  0.75784994  0.60896190     0.01200
C1170       C  0.35133195  0.78050482  0.61747243     0.04000
C1171       C  0.37233274  0.77947209  0.63999790    -0.12000
C1172       C  0.38016758  0.75570280  0.65349230     0.23300
C1173       C  0.36657134  0.73311062  0.64468071    -0.12600
C1174       C  0.34536971  0.73423023  0.62266909     0.04700
C1175       C  0.40367794  0.75398393  0.67525131     0.27100
C1176       C  0.42898109  0.75353390  0.66164625    -0.13300
C1177       C  0.45127648  0.75024719  0.68171076     0.05200
C1178       C  0.44848531  0.74600238  0.71559479    -0.09300
C1179       C  0.42288040  0.74681642  0.72923119     0.06100
C1180       C  0.40076143  0.75133863  0.70919198    -0.13600
Br1181     Br  0.37770001  0.70036369  0.66175025    -0.05700
Br1182     Br  0.34159745  0.81272131  0.59759492    -0.00100
Br1183     Br  0.48533020  0.75055499  0.66176907     0.00400
Br1184     Br  0.36618922  0.75381988  0.72798639    -0.04000
Br1185     Br  0.32728865  0.70316649  0.61001363     0.00500
Br1186     Br  0.39080804  0.81042786  0.65196424    -0.03300
Br1187     Br  0.43282618  0.75622463  0.61495122    -0.04200
Br1188     Br  0.41766625  0.74283633  0.77563027    -0.00200
C1189       C  0.04204290  0.74372120  0.71074201     0.01200
C1190       C  0.05810836  0.76590745  0.71286144     0.04000
C1191       C  0.08113219  0.76788538  0.69400800    -0.12000
C1192       C  0.08754528  0.74865234  0.67133621     0.23300
C1193       C  0.07056777  0.72761341  0.66706815    -0.12600
C1194       C  0.04822934  0.72489002  0.68694199     0.04700
C1195       C  0.11142622  0.75142271  0.65072391     0.27100
C1196       C  0.11073473  0.76753901  0.62329713    -0.13300
C1197       C  0.13321542  0.77068519  0.60384768     0.05200
C1198       C  0.15693262  0.75745041  0.61145711    -0.09300
C1199       C  0.15754919  0.74162416  0.63958637     0.06100
C1200       C  0.13483131  0.73852826  0.65887994    -0.13600
Br1201     Br  0.07789572  0.70270271  0.63345624    -0.05700
Br1202     Br  0.04929728  0.79408171  0.74094228    -0.00100
Br1203     Br  0.13065078  0.79376273  0.56708879     0.00400
Br1204     Br  0.13532528  0.71600101  0.69623455    -0.04000
Br1205     Br  0.02559330  0.69569924  0.67985188     0.00500
Br1206     Br  0.10443247  0.79691153  0.69926507    -0.03300
Br1207     Br  0.07840169  0.78495926  0.61214990    -0.04200
Br1208     Br  0.18874945  0.72278070  0.65126411    -0.00200
C1209       C  0.25445222  0.66834941  0.61125877     0.01200
C1210       C  0.25629189  0.67247078  0.64557962     0.04000
C1211       C  0.25625099  0.65139365  0.66733977    -0.12000
C1212       C  0.25545482  0.62610153  0.65542326     0.23300
C1213       C  0.25556483  0.62169598  0.62171167    -0.12600
C1214       C  0.25585658  0.64237133  0.59968378     0.04700
C1215       C  0.25472846  0.60351870  0.67770689     0.27100
C1216       C  0.27753866  0.58884601  0.68249186    -0.13300
C1217       C  0.27607929  0.56434011  0.69711316     0.05200
C1218       C  0.25177365  0.55480534  0.70962869    -0.09300
C1219       C  0.22875342  0.56853780  0.70060604     0.06100
C1220       C  0.23036781  0.59329757  0.68684863    -0.13600
Br1221     Br  0.25505961  0.58660875  0.60574024    -0.05700
Br1222     Br  0.26106859  0.70631493  0.66417574    -0.00100
Br1223     Br  0.30688839  0.54291950  0.69357779     0.00400
Br1224     Br  0.19880266  0.61252199  0.67739205    -0.04000
Br1225     Br  0.26039673  0.63313828  0.55412792     0.00500
Br1226     Br  0.25704067  0.65693373  0.71381630    -0.03300
Br1227     Br  0.31059578  0.60175119  0.66612109    -0.04200
Br1228     Br  0.19551464  0.55151784  0.69648328    -0.00200
C1229       C  0.25384800  0.84584990  0.60793558     0.01200
C1230       C  0.24476069  0.87045390  0.59743395     0.04000
C1231       C  0.24473308  0.89140535  0.61904185    -0.12000
C1232       C  0.25347765  0.88842362  0.65129557     0.23300
C1233       C  0.26267960  0.86435897  0.66197695    -0.12600
C1234       C  0.26342357  0.84326548  0.64034425     0.04700
C1235       C  0.25396650  0.91118477  0.67329246     0.27100
C1236       C  0.27445580  0.92913643  0.67076632    -0.13300
C1237       C  0.27343600  0.95236556  0.68830341     0.05200
C1238       C  0.25256013  0.95736906  0.71020419    -0.09300
C1239       C  0.23302413  0.93824629  0.71434419     0.06100
C1240       C  0.23316877  0.91584056  0.69492218    -0.13600
Br1241     Br  0.27447549  0.86059982  0.70645759    -0.05700
Br1242     Br  0.23175118  0.87689481  0.55369520    -0.00100
Br1243     Br  0.30156025  0.97663362  0.68259338     0.00400
Br1244     Br  0.20415683  0.89198596  0.69631338    -0.04000
Br1245     Br  0.27975379  0.81182718  0.65509422     0.00500
Br1246     Br  0.23253070  0.92470978  0.60454465    -0.03300
Br1247     Br  0.30369624  0.92189318  0.64236193    -0.04200
Br1248     Br  0.20563384  0.94220516  0.74594108    -0.00200
C1249       C  0.33217346  0.66845890  0.49248021     0.01200
C1250       C  0.32599278  0.64589872  0.47460648     0.04000
C1251       C  0.34463655  0.62613166  0.47131625    -0.12000
C1252       C  0.37030124  0.62947477  0.48336527     0.23300
C1253       C  0.37722753  0.65266589  0.49880781    -0.12600
C1254       C  0.35819662  0.67174781  0.50431826     0.04700
C1255       C  0.39003782  0.60856242  0.48044789     0.27100
C1256       C  0.39778161  0.59475806  0.50849614    -0.13300
C1257       C  0.41800734  0.57654994  0.50657997     0.05200
C1258       C  0.42940668  0.57080668  0.47627279    -0.09300
C1259       C  0.42070299  0.58341758  0.44788747     0.06100
C1260       C  0.40170119  0.60292400  0.45009779    -0.13600
Br1261     Br  0.41324272  0.65842877  0.51182554    -0.05700
Br1262     Br  0.29314665  0.64259603  0.45131947    -0.00100
Br1263     Br  0.43004082  0.55909001  0.54539342     0.00400
Br1264     Br  0.39223526  0.62230492  0.41173815    -0.04000
Br1265     Br  0.36856301  0.70188220  0.52881978     0.00500
Br1266     Br  0.33496882  0.59431784  0.45020373    -0.03300
Br1267     Br  0.38043933  0.60049351  0.54955938    -0.04200
Br1268     Br  0.43465481  0.57356205  0.40608933    -0.00200
C1269       C  0.06476072  0.56999818  0.50320086     0.01200
C1270       C  0.06300690  0.58782240  0.52906695     0.04000
C1271       C  0.08132606  0.60804588  0.53166671    -0.12000
C1272       C  0.10240413  0.60972692  0.50961804     0.23300
C1273       C  0.10512155  0.59101997  0.48505331    -0.12600
C1274       C  0.08605132  0.57163171  0.48133609     0.04700
C1275       C  0.12075299  0.63200901  0.51084619     0.27100
C1276       C  0.11749819  0.65257248  0.48881014    -0.13300
C1277       C  0.13571342  0.67294528  0.48832485     0.05200
C1278       C  0.15667947  0.67339827  0.51096689    -0.09300
C1279       C  0.15836006  0.65406763  0.53495443     0.06100
C1280       C  0.14125143  0.63285302  0.53396555    -0.13600
Br1281     Br  0.13473703  0.59247596  0.45592282    -0.05700
Br1282     Br  0.03543662  0.58463493  0.56086431    -0.00100
Br1283     Br  0.13205741  0.69961385  0.45593725     0.00400
Br1284     Br  0.14641618  0.60464237  0.56370497    -0.04000
Br1285     Br  0.08830048  0.54831239  0.44491597     0.00500
Br1286     Br  0.07687909  0.63429757  0.56435659    -0.03300
Br1287     Br  0.08795324  0.65267450  0.45923861    -0.04200
Br1288     Br  0.18250439  0.65794048  0.57099827    -0.00200
C1289       C  0.16363271  0.84357833  0.49899358     0.01200
C1290       C  0.15233714  0.84872718  0.46837426     0.04000
C1291       C  0.13223185  0.86691695  0.46573207    -0.12000
C1292       C  0.12465004  0.88118858  0.49335060     0.23300
C1293       C  0.13677241  0.87663633  0.52381158    -0.12600
C1294       C  0.15576980  0.85729769  0.52676888     0.04700
C1295       C  0.10387878  0.90082636  0.49026288     0.27100
C1296       C  0.10864370  0.92347207  0.47238366    -0.13300
C1297       C  0.08833645  0.94121005  0.46749308     0.05200
C1298       C  0.06423654  0.93797782  0.48373196    -0.09300
C1299       C  0.05985792  0.91580635  0.50280708     0.06100
C1300       C  0.07912893  0.89661711  0.50451432    -0.13600
Br1301     Br  0.12752367  0.89685009  0.56148761    -0.05700
Br1302     Br  0.16506390  0.83149026  0.42979724    -0.00100
Br1303     Br  0.09323980  0.96944778  0.43760619     0.00400
Br1304     Br  0.07141528  0.86432994  0.52570811    -0.04000
Br1305     Br  0.17040553  0.84902854  0.56894026     0.00500
Br1306     Br  0.11471911  0.87172794  0.42436512    -0.03300
Br1307     Br  0.14311422  0.93049805  0.45508433    -0.04200
Br1308     Br  0.02800180  0.91197799  0.52762975    -0.00200
C1309       C  0.43206471  0.93690082  0.46501174     0.01200
C1310       C  0.41347898  0.93141033  0.44040866     0.04000
C1311       C  0.39399919  0.91271650  0.44585813    -0.12000
C1312       C  0.39380292  0.89886109  0.47531314     0.23300
C1313       C  0.41225969  0.90433248  0.49986340    -0.12600
C1314       C  0.43103779  0.92362291  0.49497381     0.04700
C1315       C  0.37426396  0.87838465  0.48079300     0.27100
C1316       C  0.35053147  0.88420303  0.49629189    -0.13300
C1317       C  0.33296851  0.86445357  0.50432321     0.05200
C1318       C  0.33792433  0.83885551  0.49419716    -0.09300
C1319       C  0.36247267  0.83302722  0.47948303     0.06100
C1320       C  0.38052814  0.85284500  0.47309987    -0.13600
Br1321     Br  0.41123380  0.88569654  0.54055850    -0.05700
Br1322     Br  0.41453747  0.94963796  0.39959860    -0.00100
Br1323     Br  0.30393382  0.87269429  0.53263110     0.00400
Br1324     Br  0.41421206  0.84530711  0.45382132    -0.04000
Br1325     Br  0.45431636  0.93293593  0.53022127     0.00500
Br1326     Br  0.36689793  0.90657052  0.41383627    -0.03300
Br1327     Br  0.34226108  0.91946338  0.50662266    -0.04200
Br1328     Br  0.37261945  0.79839385  0.46796144    -0.00200
C1329       C  0.15340996  0.75253381  0.40031020     0.01200
C1330       C  0.12896428  0.76414672  0.40841198     0.04000
C1331       C  0.10726748  0.76187064  0.38731452    -0.12000
C1332       C  0.10901265  0.74698142  0.35891242     0.23300
C1333       C  0.13266004  0.73441675  0.35137794    -0.12600
C1334       C  0.15484575  0.73727834  0.37171479     0.04700
C1335       C  0.08594899  0.74481517  0.33674450     0.27100
C1336       C  0.06617193  0.72652036  0.34278930    -0.13300
C1337       C  0.04438234  0.72461092  0.32167142     0.05200
C1338       C  0.04173794  0.74169615  0.29498584    -0.09300
C1339       C  0.06289554  0.75815639  0.28734690     0.06100
C1340       C  0.08437791  0.76044847  0.30882837    -0.13600
Br1341     Br  0.13422424  0.71274200  0.31327147    -0.05700
Br1342     Br  0.12361182  0.78259276  0.44878666    -0.00100
Br1343     Br  0.01963450  0.69686538  0.32772849     0.00400
Br1344     Br  0.11225085  0.78450249  0.29970055    -0.04000
Br1345     Br  0.18608973  0.71801818  0.36134336     0.00500
Br1346     Br  0.07474953  0.77922968  0.39718431    -0.03300
Br1347     Br  0.06944432  0.70361664  0.37957754    -0.04200
Br1348     Br  0.06516735  0.77372315  0.24483268    -0.00200
C1349       C  0.44850006  0.74972128  0.29358445     0.01200
C1350       C  0.45145946  0.75121362  0.32790645     0.04000
C1351       C  0.42914561  0.75277428  0.34824242    -0.12000
C1352       C  0.40380367  0.75408641  0.33454684     0.23300
C1353       C  0.40101721  0.75559735  0.30052643    -0.12600
C1354       C  0.42318199  0.75368974  0.28022803     0.04700
C1355       C  0.37996944  0.75412720  0.35563677     0.27100
C1356       C  0.36802515  0.73069878  0.36459968    -0.13300
C1357       C  0.34510206  0.73066165  0.38374764     0.05200
C1358       C  0.33369255  0.75403754  0.39353603    -0.09300
C1359       C  0.34534340  0.77745542  0.38416011     0.06100
C1360       C  0.36851663  0.77751214  0.36550259    -0.13600
Br1361     Br  0.36653731  0.76039978  0.28189143    -0.05700
Br1362     Br  0.48559704  0.75250429  0.34776449    -0.00100
Br1363     Br  0.32966729  0.69860781  0.39752026     0.00400
Br1364     Br  0.38491380  0.80960669  0.35392494    -0.04000
Br1365     Br  0.41884262  0.75926790  0.23426869     0.00500
Br1366     Br  0.43303982  0.75305653  0.39503937    -0.03300
Br1367     Br  0.38333743  0.69863607  0.35093857    -0.04200
Br1368     Br  0.32975526  0.80948673  0.39759241    -0.00200
C1369       C  0.25131095  0.95443098  0.29299045     0.01200
C1370       C  0.26677174  0.94973072  0.32129367     0.04000
C1371       C  0.26471788  0.92632255  0.33827233    -0.12000
C1372       C  0.24641783  0.90770804  0.32833621     0.23300
C1373       C  0.23247457  0.91117227  0.29910419    -0.12600
C1374       C  0.23644100  0.93346294  0.28013462     0.04700
C1375       C  0.24224352  0.88461236  0.34905565     0.27100
C1376       C  0.25419021  0.86109901  0.34115386    -0.13300
C1377       C  0.25321177  0.84028245  0.36313457     0.05200
C1378       C  0.24183318  0.84342667  0.39445735    -0.09300
C1379       C  0.22986956  0.86741145  0.40210890     0.06100
C1380       C  0.22901197  0.88725496  0.37882285    -0.13600
Br1381     Br  0.20716629  0.88556037  0.28574091    -0.05700
Br1382     Br  0.29279240  0.97402949  0.33601258    -0.00100
Br1383     Br  0.26965906  0.80844427  0.35032512     0.00400
Br1384     Br  0.21060297  0.91892898  0.38796685    -0.04000
Br1385     Br  0.22346333  0.93223118  0.23593558     0.00500
Br1386     Br  0.28688683  0.91949443  0.37567503    -0.03300
Br1387     Br  0.27358257  0.85813138  0.30097958    -0.04200
Br1388     Br  0.21558216  0.87481269  0.44466227    -0.00200
C1389       C  0.24412436  0.55218431  0.30463959     0.01200
C1390       C  0.26543179  0.56304105  0.32229483     0.04000
C1391       C  0.26260091  0.58656500  0.33901974    -0.12000
C1392       C  0.23834841  0.59944373  0.33898649     0.23300
C1393       C  0.21648242  0.58756269  0.32450778    -0.12600
C1394       C  0.21889534  0.56291672  0.31075845     0.04700
C1395       C  0.23526222  0.62356791  0.35813569     0.27100
C1396       C  0.22275910  0.62293587  0.38869951    -0.13300
C1397       C  0.22207083  0.64507419  0.40825744     0.05200
C1398       C  0.23574059  0.66759118  0.39864288    -0.09300
C1399       C  0.24698707  0.66857880  0.36712901     0.06100
C1400       C  0.24613583  0.64678579  0.34678413    -0.13600
Br1401     Br  0.18293867  0.60479263  0.32423096    -0.05700
Br1402     Br  0.29685647  0.54393288  0.33011571    -0.00100
Br1403     Br  0.20090257  0.64436465  0.44729444     0.00400
Br1404     Br  0.26022648  0.64847202  0.30327622    -0.04000
Br1405     Br  0.18772608  0.54172241  0.31061028     0.00500
Br1406     Br  0.29173534  0.60074964  0.36346568    -0.03300
Br1407     Br  0.20726938  0.59139219  0.40454718    -0.04200
Br1408     Br  0.26485703  0.69895765  0.35159993    -0.00200
O1409       O  0.73995622  0.21226003  0.41174646    -0.80300
O1410       O  0.75086914  0.21401883  0.59764704    -0.81800
O1411       O  0.78810636  0.18214697  0.50148172    -0.78800
O1412       O  0.70181363  0.18518651  0.50818656    -0.77200
O1413       O  0.67071547  0.21672070  0.50793978    -0.79000
O1414       O  0.82003324  0.21248420  0.49706832    -0.79900
O1415       O  0.74836634  0.18433326  0.55758451    -0.81300
O1416       O  0.74267314  0.18260072  0.45254469    -0.81600
Eu1417     Eu  0.74580660  0.20486092  0.50469499     2.39200
O1418       O  0.72048896  0.23110421  0.53885996    -0.89100
O1419       O  0.77172007  0.22960512  0.46945562    -0.92700
C1420       C  0.73988689  0.18887302  0.42236896     1.02000
C1421       C  0.75105214  0.19044419  0.58763479     1.01800
C1422       C  0.81225927  0.18896664  0.49769205     1.01800
C1423       C  0.67776231  0.19299487  0.50879271     0.99600
H1424       H  0.78511869  0.21957896  0.54996190     0.29400
O1425       O  0.77368714  0.23034342  0.53704375    -1.01500
H1426       H  0.70748423  0.21978493  0.45925929     0.29400
O1427       O  0.71929952  0.23061495  0.47147821    -1.04000
O1428       O  0.74958713  0.30047029  0.59619445    -0.81200
O1429       O  0.74180583  0.29871450  0.41006246    -0.80800
O1430       O  0.82297945  0.25701958  0.55442743    -0.79200
O1431       O  0.67272295  0.25724846  0.55740642    -0.82500
O1432       O  0.67130901  0.25409722  0.45355645    -0.80400
O1433       O  0.82032372  0.25438654  0.44796201    -0.79000
O1434       O  0.79294841  0.32687588  0.49629050    -0.80600
O1435       O  0.70743654  0.33016493  0.50260479    -0.82500
O1436       O  0.82367050  0.29555086  0.50076289    -0.79200
O1437       O  0.67478377  0.29991377  0.50206045    -0.81900
O1438       O  0.79252586  0.25890925  0.59546036    -0.77600
O1439       O  0.78846772  0.25409421  0.40826056    -0.77700
O1440       O  0.70018686  0.25585996  0.41140384    -0.77300
O1441       O  0.70353255  0.25795615  0.59779081    -0.80800
O1442       O  0.75534832  0.32864830  0.55443126    -0.80200
O1443       O  0.74731983  0.32926885  0.44919906    -0.78600
Eu1444     Eu  0.74799840  0.25706988  0.57125937     2.39800
Eu1445     Eu  0.74494287  0.25557801  0.43578891     2.39600
Eu1446     Eu  0.79981537  0.25489953  0.50172139     2.38400
Eu1447     Eu  0.69469315  0.25737419  0.50515643     2.39900
Eu1448     Eu  0.74931864  0.30746895  0.50192854     2.39800
O1449       O  0.72063449  0.28241357  0.47030097    -0.93000
O1450       O  0.77477152  0.28132502  0.53572586    -0.91900
C1451       C  0.75317087  0.32343108  0.58491620     1.02200
C1452       C  0.74366787  0.32240542  0.41938944     1.00900
C1453       C  0.81635748  0.25855563  0.58471306     1.00300
C1454       C  0.67933872  0.25769709  0.58761167     1.02300
C1455       C  0.67661696  0.25439590  0.42298883     1.01200
C1456       C  0.81270363  0.25405486  0.41800178     1.00100
C1457       C  0.81695566  0.31919573  0.49755653     1.00100
C1458       C  0.68321214  0.32321414  0.50164547     1.02700
H1459       H  0.78454387  0.29120060  0.45347302     0.30100
O1460       O  0.77372978  0.28084704  0.46765033    -1.05100
H1461       H  0.71173281  0.29489946  0.55037439     0.32200
O1462       O  0.72217805  0.28349879  0.53719627    -1.07700
N1463       N  0.53627137  0.00452873  0.48761680    -0.36700
N1464       N  0.99758160  0.46612738  0.47035640    -0.57300
N1465       N  0.95792533  0.00499720  0.46653177    -0.36700
N1466       N  0.99728788  0.04365760  0.48523786    -0.57300
C1467       C  0.54899549  0.48256993  0.49541778     0.26800
C1468       C  0.54908120  0.02415415  0.50229738     0.26800
C1469       C  0.94284552  0.48353729  0.46890722     0.26800
C1470       C  0.94259870  0.02503542  0.47483602     0.26800
C1471       C  0.51964091  0.45222516  0.46621078     0.35500
C1472       C  0.97781993  0.45232968  0.45720662     0.35500
C1473       C  0.51838932  0.05885032  0.48678890     0.35500
C1474       C  0.97701385  0.05902321  0.47690517     0.35500
C1475       C  0.57012385  0.48830996  0.51559432    -0.22000
C1476       C  0.57026419  0.01467090  0.51976992    -0.22000
C1477       C  0.91764388  0.49008097  0.47827617    -0.22000
C1478       C  0.91739323  0.01636596  0.48133658    -0.22000
C1479       C  0.51409994  0.42971789  0.44942165    -0.23100
C1480       C  0.98727067  0.42971602  0.44405520    -0.23100
C1481       C  0.51174530  0.08404007  0.47971202    -0.23100
C1482       C  0.98556012  0.08420069  0.47403959    -0.23100
C1483       C  0.54364834  0.45813348  0.48173886    -0.18400
C1484       C  0.54337600  0.05047729  0.49760099    -0.18400
C1485       C  0.95051907  0.05103512  0.47531939    -0.18400
C1486       C  0.95122042  0.45836577  0.46171812    -0.18400
H1487       H  0.58446016  0.47505137  0.52539408     0.14500
H1488       H  0.58461612  0.02560980  0.53344009     0.14500
H1489       H  0.90112903  0.47734805  0.48198835     0.14500
H1490       H  0.90048777  0.02768848  0.48807635     0.14500
H1491       H  0.52760636  0.41445836  0.44331152     0.12800
H1492       H  0.97598676  0.41444091  0.43288559     0.12800
H1493       H  0.52446651  0.10068568  0.48000901     0.12800
H1494       H  0.97384535  0.10097445  0.46853131     0.12800
H1495       H  0.52204879  0.00630978  0.46953468     0.26000
H1496       H  0.97682136  0.00631354  0.45719469     0.26000
O1497       O  0.99938927  0.44346203  0.91164200    -0.80300
O1498       O  0.00301099  0.45081215  0.09950190    -0.81800
O1499       O  0.55013146  0.42175966  0.00160509    -0.78800
O1500       O  0.96623801  0.41312627  0.00551184    -0.77200
O1501       O  0.93143950  0.44078155  0.00452103    -0.79000
O1502       O  0.57918683  0.45473321  0.00511013    -0.79900
O1503       O  0.00696133  0.41911014  0.06095223    -0.81300
O1504       O  0.00412825  0.41492201  0.95318302    -0.81600
Eu1505     Eu  0.00582501  0.43866030  0.00604967     2.39200
O1506       O  0.97754310  0.46302279  0.03959487    -0.89100
O1507       O  0.53015263  0.46544733  0.97158792    -0.92700
C1508       C  0.00077674  0.42026264  0.92258897     1.02000
C1509       C  0.00508829  0.42700895  0.09072017     1.01800
C1510       C  0.57363645  0.43061932  0.00288906     1.01800
C1511       C  0.94161441  0.41798814  0.00411893     0.99600
H1512       H  0.54191117  0.45815460  0.05223331     0.29400
O1513       O  0.53002386  0.46774056  0.03851633    -1.01500
H1514       H  0.96639473  0.44945800  0.95968051     0.29400
O1515       O  0.97688274  0.46128572  0.97231323    -1.04000
O1516       O  0.00333689  0.03771817  0.09182459    -0.81200
O1517       O  0.99745711  0.02773274  0.90569451    -0.80800
O1518       O  0.57594497  0.49818526  0.05664247    -0.79200
O1519       O  0.92692211  0.48887225  0.05941462    -0.82500
O1520       O  0.92689188  0.48613990  0.95239466    -0.80400
O1521       O  0.57732597  0.49209233  0.95299866    -0.79000
O1522       O  0.53519494  0.06752435  0.99613534    -0.80600
O1523       O  0.95251542  0.05883950  0.99745362    -0.82500
O1524       O  0.57006533  0.04010084  0.00048809    -0.79200
O1525       O  0.92337382  0.02575233  0.00249875    -0.81900
O1526       O  0.54567548  0.49515933  0.09752684    -0.77600
O1527       O  0.54724572  0.98633947  0.91204077    -0.77700
O1528       O  0.95651265  0.98437307  0.91129469    -0.77300
O1529       O  0.95839556  0.49510062  0.09852200    -0.80800
O1530       O  0.99635555  0.06491936  0.04958549    -0.80200
O1531       O  0.99363245  0.05941240  0.94398073    -0.78600
Eu1532     Eu  0.00186279  0.49295351  0.07103498     2.39800
Eu1533     Eu  0.00134793  0.48680825  0.93579130     2.39600
Eu1534     Eu  0.55388689  0.49502551  0.00379911     2.38400
Eu1535     Eu  0.94847063  0.48546560  0.00543332     2.39900
Eu1536     Eu  0.99649358  0.04078013  0.99877066     2.39800
O1537       O  0.97247555  0.01101933  0.96855576    -0.93000
O1538       O  0.52525687  0.01971141  0.03512606    -0.91900
C1539       C  0.00024826  0.06056341  0.08002245     1.02200
C1540       C  0.99461379  0.05144146  0.91426540     1.00900
C1541       C  0.56951324  0.49691810  0.08694403     1.00300
C1542       C  0.93415068  0.49312237  0.08922130     1.02300
C1543       C  0.93262050  0.98518562  0.92196980     1.01200
C1544       C  0.57116715  0.98887976  0.92297539     1.00100
C1545       C  0.55983461  0.06277276  0.99763126     1.00100
C1546       C  0.92912107  0.04981853  0.99982694     1.02700
H1547       H  0.53578123  0.02754676  0.95306117     0.30100
O1548       O  0.52571935  0.01651998  0.96728533    -1.05100
H1549       H  0.96161021  0.02601303  0.04827377     0.32200
O1550       O  0.97306629  0.01508874  0.03571911    -1.07700
N1551       N  0.79171730  0.23634465  0.98530886    -0.36700
N1552       N  0.74795484  0.20142216  0.98725392    -0.57300
N1553       N  0.71229620  0.24399478  0.98724590    -0.36700
N1554       N  0.75562368  0.27905033  0.98468779    -0.57300
C1555       C  0.80354210  0.21431116  0.99473340     0.26800
C1556       C  0.80767395  0.25598759  0.99374875     0.26800
C1557       C  0.69690768  0.22460471  0.99787026     0.26800
C1558       C  0.70084083  0.26621200  0.99631506     0.26800
C1559       C  0.76747108  0.18511463  0.97960121     0.35500
C1560       C  0.72533097  0.18939439  0.97967071     0.35500
C1561       C  0.77807704  0.29141882  0.97745024     0.35500
C1562       C  0.73587871  0.29550356  0.97820332     0.35500
C1563       C  0.82749974  0.21994995  0.00913787    -0.22000
C1564       C  0.83010012  0.24634186  0.00857262    -0.22000
C1565       C  0.67552437  0.23461740  0.01435356    -0.22000
C1566       C  0.67790679  0.26099228  0.01311613    -0.22000
C1567       C  0.75734135  0.16261823  0.96669999    -0.23100
C1568       C  0.73051434  0.16547869  0.96629022    -0.23100
C1569       C  0.77261740  0.31587861  0.96585724    -0.23100
C1570       C  0.74575135  0.31848410  0.96638262    -0.23100
C1571       C  0.79383553  0.18937389  0.98819082    -0.18400
C1572       C  0.80314739  0.28209287  0.98594722    -0.18400
C1573       C  0.70961095  0.29084619  0.98701956    -0.18400
C1574       C  0.70051858  0.19850978  0.98945187    -0.18400
H1575       H  0.84175003  0.20645430  0.01859877     0.14500
H1576       H  0.84677196  0.25715933  0.01750932     0.14500
H1577       H  0.65942215  0.22405417  0.02505775     0.14500
H1578       H  0.66409421  0.27475008  0.02282790     0.14500
H1579       H  0.76811421  0.14571479  0.95929971     0.12800
H1580       H  0.71643575  0.15111431  0.95864644     0.12800
H1581       H  0.78656530  0.33063438  0.95915656     0.12800
H1582       H  0.73483170  0.33561112  0.96011449     0.12800
H1583       H  0.77516148  0.23771684  0.97049599     0.26000
H1584       H  0.72770936  0.24227127  0.97079512     0.26000
C1585       C  0.99436715  0.21873500  0.22825939     0.86400
C1586       C  0.51736528  0.21818705  0.25269060    -0.53900
C1587       C  0.51933460  0.23916400  0.27221548     0.09300
C1588       C  0.99637475  0.25880869  0.26692980     0.20200
C1589       C  0.97045249  0.22170700  0.25123075    -0.54600
C1590       C  0.97107678  0.24289543  0.27101146     0.09400
C1591       C  0.99727426  0.24459745  0.21082111    -0.54100
C1592       C  0.99692181  0.26617369  0.23008908     0.09900
H1593       H  0.53124303  0.20242100  0.25420622     0.14500
H1594       H  0.99650446  0.27477526  0.28428798     0.00200
H1595       H  0.95493600  0.20763714  0.25351604     0.14800
H1596       H  0.00009039  0.24534251  0.18467848     0.14600
C1597       C  0.74777385  0.02857346  0.28128243     0.86400
C1598       C  0.77311719  0.02785518  0.26032536    -0.53900
C1599       C  0.77564249  0.50680545  0.24046013     0.09300
C1600       C  0.75159340  0.48866976  0.24293498     0.20200
C1601       C  0.72633331  0.02693955  0.25520428    -0.54600
C1602       C  0.72731485  0.50601817  0.23602391     0.09400
C1603       C  0.74699506  0.50257711  0.29900291    -0.54100
C1604       C  0.74970860  0.48139773  0.27931870     0.09900
H1605       H  0.78749780  0.04321554  0.26064467     0.14500
H1606       H  0.75360102  0.47182992  0.22722460     0.00200
H1607       H  0.71144813  0.04153124  0.25150513     0.14800
H1608       H  0.74450678  0.50111786  0.32519802     0.14600
C1609       C  0.99703602  0.21337646  0.77571527     0.86400
C1610       C  0.97245412  0.21734163  0.75429408    -0.53900
C1611       C  0.97206468  0.23942171  0.73629423     0.09300
C1612       C  0.99680984  0.25632244  0.74190104     0.20200
C1613       C  0.52041910  0.21669639  0.75308197    -0.54600
C1614       C  0.52049234  0.23866794  0.73487319     0.09400
C1615       C  0.99696934  0.23811786  0.79665755    -0.54100
C1616       C  0.99751413  0.26068484  0.77928630     0.09900
H1617       H  0.95592832  0.20421023  0.75437336     0.14500
H1618       H  0.99679710  0.27434091  0.72748611     0.00200
H1619       H  0.53589760  0.20244216  0.75141736     0.14800
H1620       H  0.99562659  0.23805106  0.82301261     0.14600
C1621       C  0.75075091  0.03004348  0.73059929     0.86400
C1622       C  0.72752057  0.02694665  0.75456256    -0.53900
C1623       C  0.72721148  0.50421760  0.77157417     0.09300
C1624       C  0.75138735  0.48710792  0.76444389     0.20200
C1625       C  0.77443316  0.02711122  0.75340271    -0.54600
C1626       C  0.77527617  0.50489898  0.77106030     0.08200
C1627       C  0.75050123  0.50536816  0.70967563    -0.54100
C1628       C  0.75109547  0.48288773  0.72698031     0.09900
H1629       H  0.71283916  0.04164332  0.75851083     0.14500
H1630       H  0.75163316  0.46898381  0.77862575     0.00200
H1631       H  0.78924906  0.04190440  0.75617678     0.14800
H1632       H  0.75029386  0.50581138  0.68321950     0.14600
C1633       C  0.59163221  0.49644966  0.11060696     0.01200
C1634       C  0.61263918  0.47915838  0.10553371     0.04000
C1635       C  0.63516085  0.48019591  0.12531847    -0.12000
C1636       C  0.63665126  0.49790435  0.15105915     0.23300
C1637       C  0.61533773  0.01422918  0.15721308    -0.12600
C1638       C  0.59298057  0.01376383  0.13685197     0.04700
C1639       C  0.66058506  0.49890561  0.17182608     0.27100
C1640       C  0.66178995  0.48442687  0.20071617    -0.13300
C1641       C  0.68341630  0.48700578  0.22186543     0.05200
C1642       C  0.70561348  0.50146555  0.21229525    -0.09300
C1643       C  0.70412813  0.51633247  0.18346215     0.06100
C1644       C  0.68160282  0.51517066  0.16346637    -0.13600
Br1645     Br  0.61706566  0.03764126  0.19357701    -0.05700
Br1646     Br  0.61047231  0.45301410  0.07237956    -0.00100
Br1647     Br  0.67999500  0.47489314  0.26611564     0.00400
Br1648     Br  0.67877928  0.53676781  0.12537717    -0.04000
Br1649     Br  0.56521101  0.03815682  0.14393078     0.00500
Br1650     Br  0.66418309  0.45730866  0.11723323    -0.03300
Br1651     Br  0.63321852  0.46170957  0.21171607    -0.04200
Br1652     Br  0.73145717  0.04054926  0.17307649    -0.00200
C1653       C  0.79958026  0.50204531  0.21897588     0.01200
C1654       C  0.79753530  0.49277322  0.18628391     0.04000
C1655       C  0.82018384  0.49018196  0.16658889    -0.12000
C1656       C  0.84503908  0.49784940  0.17824563     0.23300
C1657       C  0.84736589  0.00647262  0.21044767    -0.12600
C1658       C  0.82531275  0.00687956  0.23107104     0.04700
C1659       C  0.86861546  0.49735555  0.15643244     0.27100
C1660       C  0.88991900  0.48068926  0.16270847    -0.13300
C1661       C  0.91274957  0.48187856  0.14332835     0.05200
C1662       C  0.91278201  0.49622537  0.11404345    -0.09300
C1663       C  0.89147515  0.01295909  0.10805202     0.06100
C1664       C  0.87035583  0.01445318  0.13011025    -0.13600
Br1665     Br  0.88077838  0.01926805  0.22612046    -0.05700
Br1666     Br  0.76452904  0.48354168  0.16641712    -0.00100
Br1667     Br  0.94426864  0.46562627  0.15895891     0.00400
Br1668     Br  0.84411049  0.04097656  0.12511492    -0.04000
Br1669     Br  0.83210786  0.01047486  0.27677673     0.00500
Br1670     Br  0.81724937  0.47650182  0.12286360    -0.03300
Br1671     Br  0.88771512  0.45564626  0.19731817    -0.04200
Br1672     Br  0.89163858  0.03560095  0.07107322    -0.00200
C1673       C  0.00438557  0.40693896  0.11642448     0.01200
C1674       C  0.98004722  0.39758600  0.12750377     0.04000
C1675       C  0.97900103  0.37670768  0.14930887    -0.12000
C1676       C  0.00229461  0.36436388  0.15946688     0.23300
C1677       C  0.52679823  0.37445590  0.14957111    -0.12600
C1678       C  0.52774495  0.39578200  0.12826714     0.04700
C1679       C  0.00068439  0.33997572  0.17873260     0.27100
C1680       C  0.50715545  0.33936869  0.21236829    -0.13300
C1681       C  0.50662689  0.31583647  0.22989236     0.05200
C1682       C  0.99608664  0.29300572  0.21476056    -0.09300
C1683       C  0.98527138  0.29583963  0.18277557     0.06100
C1684       C  0.99055636  0.31777093  0.16398256    -0.13600
Br1685     Br  0.55894696  0.35848079  0.16397717    -0.05700
Br1686     Br  0.94792671  0.41245985  0.11134353    -0.00100
Br1687     Br  0.52046997  0.31711374  0.27364613     0.00400
Br1688     Br  0.98345110  0.31737304  0.11763898    -0.04000
Br1689     Br  0.56105742  0.40971271  0.11497886     0.00500
Br1690     Br  0.94544598  0.36452802  0.16469552    -0.03300
Br1691     Br  0.51569812  0.37126117  0.23409828    -0.04200
Br1692     Br  0.95871459  0.27286361  0.16557717    -0.00200
C1693       C  0.99450855  0.19594993  0.20375789     0.01200
C1694       C  0.51866401  0.18749203  0.19007307     0.04000
C1695       C  0.51978175  0.16440365  0.17220173    -0.12000
C1696       C  0.99677103  0.15077629  0.16467472     0.23300
C1697       C  0.97241813  0.16089958  0.17394998    -0.12600
C1698       C  0.97109779  0.18382887  0.19223390     0.04700
C1699       C  0.99788918  0.12758402  0.14350699     0.27100
C1700       C  0.99914225  0.13055241  0.10960000    -0.13300
C1701       C  0.00240265  0.10904088  0.08930382     0.05200
C1702       C  0.00073410  0.08358139  0.10241705    -0.09300
C1703       C  0.49816009  0.08084591  0.13716550     0.06100
C1704       C  0.49750234  0.10277076  0.15742475    -0.13600
Br1705     Br  0.94075189  0.14375761  0.15953773    -0.05700
Br1706     Br  0.54987958  0.20877828  0.19043940    -0.00100
Br1707     Br  0.01108886  0.11626805  0.04421218     0.00400
Br1708     Br  0.49507391  0.09920755  0.20416354    -0.04000
Br1709     Br  0.93741319  0.20065419  0.19334278     0.00500
Br1710     Br  0.55301990  0.15156543  0.15660410    -0.03300
Br1711     Br  0.99498483  0.16447224  0.09095688    -0.04200
Br1712     Br  0.49488496  0.04775529  0.15830217    -0.00200
C1713       C  0.59536305  0.41145793  0.00141810     0.01200
C1714       C  0.59116920  0.38603610  0.01314554     0.04000
C1715       C  0.61027256  0.36704317  0.00852126    -0.12000
C1716       C  0.63427688  0.37328417  0.99395169     0.23300
C1717       C  0.63912835  0.39843880  0.98310397    -0.12600
C1718       C  0.61983423  0.41756919  0.98671023     0.04700
C1719       C  0.65459545  0.35320907  0.99097335     0.27100
C1720       C  0.67361447  0.35044217  0.01568112    -0.13300
C1721       C  0.69196674  0.33038213  0.01404052     0.05200
C1722       C  0.69084589  0.31262404  0.98814062    -0.09300
C1723       C  0.67115884  0.31489574  0.96407045     0.06100
C1724       C  0.65330581  0.33540524  0.96522043    -0.13600
Br1725     Br  0.67205606  0.40618045  0.96208389    -0.05700
Br1726     Br  0.56017376  0.37642935  0.03746044    -0.00100
Br1727     Br  0.71756530  0.32624044  0.04835853     0.00400
Br1728     Br  0.62608960  0.33848330  0.93260907    -0.04000
Br1729     Br  0.62760549  0.45152296  0.97017373     0.00500
Br1730     Br  0.60346474  0.33191320  0.02147379    -0.03300
Br1731     Br  0.67321822  0.37314033  0.05286146    -0.04200
Br1732     Br  0.66792518  0.28933512  0.93029686    -0.00200
C1733       C  0.92395223  0.39580446  0.99980961     0.01200
C1734       C  0.92605482  0.37362095  0.01955409     0.04000
C1735       C  0.90759953  0.35376073  0.01618160    -0.12000
C1736       C  0.88705156  0.35618330  0.99345296     0.23300
C1737       C  0.88680392  0.37684018  0.97132993    -0.12600
C1738       C  0.90634897  0.39567927  0.97332131     0.04700
C1739       C  0.86619933  0.33660067  0.99220922     0.27100
C1740       C  0.86644124  0.31772010  0.96771272    -0.13300
C1741       C  0.84585794  0.29986171  0.96566567     0.05200
C1742       C  0.82519863  0.30066995  0.98844229    -0.09300
C1743       C  0.82543077  0.31924392  0.01353257     0.06100
C1744       C  0.84610673  0.33697049  0.01562016    -0.13600
Br1745     Br  0.86006606  0.37924063  0.93805164    -0.05700
Br1746     Br  0.95516509  0.36883274  0.04898852    -0.00100
Br1747     Br  0.84559192  0.27489583  0.93096612     0.00400
Br1748     Br  0.84733478  0.36145326  0.05098742    -0.04000
Br1749     Br  0.91327245  0.41698730  0.93593498     0.00500
Br1750     Br  0.91054859  0.32290172  0.04206852    -0.03300
Br1751     Br  0.89536120  0.31615545  0.93748883    -0.04200
Br1752     Br  0.79745876  0.32064448  0.04507967    -0.00200
C1753       C  0.90745110  0.06861660  0.00041421     0.01200
C1754       C  0.88556308  0.06551418  0.97970247     0.04000
C1755       C  0.86462137  0.08297114  0.98111817    -0.12000
C1756       C  0.86614733  0.10450480  0.00179063     0.23300
C1757       C  0.88787253  0.10761883  0.02267609    -0.12600
C1758       C  0.90845916  0.08971770  0.02208974     0.04700
C1759       C  0.84685468  0.12557572  0.99821769     0.27100
C1760       C  0.84898914  0.14240402  0.97143266    -0.13300
C1761       C  0.83104405  0.16261376  0.96758540     0.05200
C1762       C  0.81167554  0.16690467  0.99132029    -0.09300
C1763       C  0.80929338  0.14985188  0.01794764     0.06100
C1764       C  0.82678275  0.12910379  0.02128707    -0.13600
Br1765     Br  0.88969051  0.13681513  0.05160555    -0.05700
Br1766     Br  0.88546617  0.03931578  0.94663040    -0.00100
Br1767     Br  0.83217963  0.18372552  0.92899536     0.00400
Br1768     Br  0.82352706  0.10567846  0.05753200    -0.04000
Br1769     Br  0.93776180  0.09432200  0.05146235     0.00500
Br1770     Br  0.83404137  0.07789804  0.95402774    -0.03300
Br1771     Br  0.87703194  0.13809921  0.94036321    -0.04200
Br1772     Br  0.78215375  0.15491224  0.04990208    -0.00200
C1773       C  0.57745755  0.08516288  0.99660902     0.01200
C1774       C  0.58422423  0.09645642  0.96667226     0.04000
C1775       C  0.60426319  0.11491206  0.96537757    -0.12000
C1776       C  0.61416071  0.12564517  0.99452448     0.23300
C1777       C  0.60423631  0.11693818  0.02480399    -0.12600
C1778       C  0.58670871  0.09604326  0.02578431     0.04700
C1779       C  0.63586679  0.14480159  0.99347036     0.27100
C1780       C  0.66030485  0.13862921  0.00754393    -0.13300
C1781       C  0.67996003  0.15739233  0.00986581     0.05200
C1782       C  0.67792662  0.18023674  0.99139809    -0.09300
C1783       C  0.65451264  0.18513030  0.97392318     0.06100
C1784       C  0.63272697  0.16880332  0.97781012    -0.13600
Br1785     Br  0.61490988  0.13310398  0.06505734    -0.05700
Br1786     Br  0.56438922  0.08871416  0.92801564    -0.00100
Br1787     Br  0.70871080  0.15184979  0.03973287     0.00400
Br1788     Br  0.59881227  0.17971845  0.96199443    -0.04000
Br1789     Br  0.57423820  0.08296544  0.06693902     0.00500
Br1790     Br  0.61960414  0.12328568  0.92371461    -0.03300
Br1791     Br  0.66783976  0.10389297  0.02121802    -0.04200
Br1792     Br  0.65275488  0.21272311  0.94249105    -0.00200
C1793       C  0.79707596  0.50036713  0.79505000     0.01200
C1794       C  0.81221495  0.47760541  0.79403561     0.04000
C1795       C  0.83461389  0.47497184  0.81393828    -0.12000
C1796       C  0.84238815  0.49502746  0.83473496     0.23300
C1797       C  0.82726539  0.01760123  0.83661098    -0.12600
C1798       C  0.80446134  0.02018041  0.81740491     0.04700
C1799       C  0.86565536  0.49168610  0.85627001     0.27100
C1800       C  0.86219233  0.98238570  0.88801496    -0.13300
C1801       C  0.88379987  0.97955929  0.90914091     0.05200
C1802       C  0.90980147  0.48588268  0.89838639    -0.09300
C1803       C  0.91302414  0.49427157  0.86550715     0.06100
C1804       C  0.89099549  0.49712484  0.84483166    -0.13600
Br1805     Br  0.83803683  0.04494136  0.86554043    -0.05700
Br1806     Br  0.80359713  0.44997405  0.76487174    -0.00100
Br1807     Br  0.87565230  0.96777167  0.95290015     0.00400
Br1808     Br  0.89512992  0.50870240  0.80038772    -0.04000
Br1809     Br  0.78281772  0.05031803  0.82357665     0.00500
Br1810     Br  0.85510143  0.44380433  0.81281987    -0.03300
Br1811     Br  0.82714278  0.97353817  0.90230012    -0.04200
Br1812     Br  0.94687843  0.50350071  0.84779124    -0.00200
C1813       C  0.59393150  0.48867405  0.90009916     0.01200
C1814       C  0.61230235  0.00909365  0.90107352     0.04000
C1815       C  0.63471559  0.00871775  0.88114643    -0.12000
C1816       C  0.63943150  0.48770275  0.86028669     0.23300
C1817       C  0.62200447  0.46661866  0.86062858    -0.12600
C1818       C  0.59958453  0.46692786  0.88083532     0.04700
C1819       C  0.66196334  0.48868621  0.83709432     0.27100
C1820       C  0.65753715  0.99578088  0.80475120    -0.13300
C1821       C  0.67870641  0.99864374  0.78313380     0.05200
C1822       C  0.70496576  0.49722982  0.79421065    -0.09300
C1823       C  0.70934115  0.48958174  0.82701954     0.06100
C1824       C  0.68786686  0.48426954  0.84780219    -0.13600
Br1825     Br  0.62917026  0.43723317  0.83355540    -0.05700
Br1826     Br  0.60766073  0.03758028  0.93036354    -0.00100
Br1827     Br  0.67086956  0.00163679  0.73745977     0.00400
Br1828     Br  0.69356780  0.47079925  0.89108208    -0.04000
Br1829     Br  0.57859036  0.43639014  0.88514277     0.00500
Br1830     Br  0.65893235  0.03731320  0.88185582    -0.03300
Br1831     Br  0.62211474  0.00210592  0.78989993    -0.04200
Br1832     Br  0.74421160  0.48784055  0.84499073    -0.00200
C1833       C  0.99278495  0.07144757  0.88864122     0.01200
C1834       C  0.97176943  0.08911330  0.88905518     0.04000
C1835       C  0.97225799  0.11097092  0.86883032    -0.12000
C1836       C  0.99386897  0.11547988  0.84831662     0.23300
C1837       C  0.51449340  0.09760047  0.84746665    -0.12600
C1838       C  0.51356896  0.07520833  0.86676171     0.04700
C1839       C  0.99563088  0.13983887  0.82932605     0.27100
C1840       C  0.98628065  0.14103957  0.79716517    -0.13300
C1841       C  0.98830869  0.16406914  0.77909477     0.05200
C1842       C  0.99797215  0.18708207  0.79398768    -0.09300
C1843       C  0.51113931  0.18436322  0.82499865     0.06100
C1844       C  0.50884264  0.16140672  0.84309823    -0.13600
Br1845     Br  0.54463139  0.10434567  0.82049118    -0.05700
Br1846     Br  0.94193720  0.08309081  0.91688172    -0.00100
Br1847     Br  0.98202835  0.16161886  0.73271078     0.00400
Br1848     Br  0.52518833  0.15826418  0.88555226    -0.04000
Br1849     Br  0.54138791  0.05017816  0.86357695     0.00500
Br1850     Br  0.94380908  0.13534108  0.87004373    -0.03300
Br1851     Br  0.97193013  0.11034523  0.77750461    -0.04200
Br1852     Br  0.53741631  0.20824980  0.83962905    -0.00200
C1853       C  0.99803385  0.39828188  0.89857370     0.01200
C1854       C  0.50554232  0.40111996  0.86507112     0.04000
C1855       C  0.50498675  0.37972333  0.84381789    -0.12000
C1856       C  0.99628885  0.35543505  0.85516137     0.23300
C1857       C  0.98663915  0.35309686  0.88700818    -0.12600
C1858       C  0.98759471  0.37413350  0.90865082     0.04700
C1859       C  0.99757951  0.33231410  0.83368580     0.27100
C1860       C  0.97789982  0.32757900  0.81033761    -0.13300
C1861       C  0.97868201  0.30518142  0.79098468     0.05200
C1862       C  0.99852581  0.28649883  0.79590967    -0.09300
C1863       C  0.51888766  0.29242388  0.81795937     0.06100
C1864       C  0.51833228  0.31510326  0.83670142    -0.13600
Br1865     Br  0.97147979  0.32072907  0.90049530    -0.05700
Br1866     Br  0.51623966  0.43368108  0.84674280    -0.00100
Br1867     Br  0.95232495  0.30111258  0.75791721     0.00400
Br1868     Br  0.54613547  0.32233273  0.86747904    -0.04000
Br1869     Br  0.97255657  0.36918385  0.95119765     0.00500
Br1870     Br  0.51632057  0.38304591  0.79909960    -0.03300
Br1871     Br  0.94923850  0.35156668  0.80587389    -0.04200
Br1872     Br  0.54932869  0.27068540  0.82104824    -0.00200
C1873       C  0.83783247  0.25835937  0.60901245     0.01200
C1874       C  0.85138486  0.28107138  0.61740189     0.04000
C1875       C  0.87239757  0.28015591  0.63993138    -0.12000
C1876       C  0.88030283  0.25644312  0.65353375     0.23300
C1877       C  0.86670034  0.23380751  0.64490309    -0.12600
C1878       C  0.84551692  0.23480655  0.62285350     0.04700
C1879       C  0.90385860  0.25479821  0.67525543     0.27100
C1880       C  0.92915678  0.25433990  0.66162296    -0.13300
C1881       C  0.95146762  0.25093622  0.68164982     0.05200
C1882       C  0.94868807  0.24642780  0.71548728    -0.09300
C1883       C  0.92308801  0.24729425  0.72915300     0.06100
C1884       C  0.90098127  0.25209959  0.70919147    -0.13600
Br1885     Br  0.87773544  0.20115701  0.66235998    -0.05700
Br1886     Br  0.84158415  0.31319816  0.59733651    -0.00100
Br1887     Br  0.98552645  0.25153001  0.66172403     0.00400
Br1888     Br  0.86647411  0.25496027  0.72808310    -0.04000
Br1889     Br  0.82755831  0.20365308  0.61027456     0.00500
Br1890     Br  0.89072614  0.31120471  0.65184357    -0.03300
Br1891     Br  0.93297634  0.25717408  0.61494047    -0.04200
Br1892     Br  0.91785964  0.24303311  0.77550661    -0.00200
C1893       C  0.54204919  0.24369341  0.71066091     0.01200
C1894       C  0.55816325  0.26584594  0.71274260     0.04000
C1895       C  0.58122137  0.26772889  0.69393372    -0.12000
C1896       C  0.58767123  0.24838942  0.67142044     0.23300
C1897       C  0.57067938  0.22734803  0.66723770    -0.12600
C1898       C  0.54822211  0.22480058  0.68694156     0.04700
C1899       C  0.61150551  0.25115142  0.65071673     0.27100
C1900       C  0.61066873  0.26711015  0.62314771    -0.13300
C1901       C  0.63309138  0.27027668  0.60359161     0.05200
C1902       C  0.65694023  0.25729494  0.61131997    -0.09300
C1903       C  0.65769334  0.24163975  0.63960570     0.06100
C1904       C  0.63500847  0.23846264  0.65894102    -0.13600
Br1905     Br  0.57815900  0.20217081  0.63400373    -0.05700
Br1906     Br  0.54932162  0.29412922  0.74063372    -0.00100
Br1907     Br  0.63022669  0.29301878  0.56651453     0.00400
Br1908     Br  0.63569109  0.21611203  0.69646254    -0.04000
Br1909     Br  0.52532852  0.19583251  0.67964779     0.00500
Br1910     Br  0.60449928  0.29679463  0.69898399    -0.03300
Br1911     Br  0.57822035  0.28433703  0.61201528    -0.04200
Br1912     Br  0.68904465  0.22312254  0.65147209    -0.00200
C1913       C  0.75448589  0.16849441  0.61141874     0.01200
C1914       C  0.75621121  0.17265645  0.64574550     0.04000
C1915       C  0.75625112  0.15159751  0.66752405    -0.12000
C1916       C  0.75550226  0.12630716  0.65562562     0.23300
C1917       C  0.75569205  0.12186209  0.62192937    -0.12600
C1918       C  0.75599437  0.14251345  0.59987930     0.04700
C1919       C  0.75475980  0.10375798  0.67791897     0.27100
C1920       C  0.77762642  0.08922315  0.68291568    -0.13300
C1921       C  0.77620602  0.06468388  0.69742189     0.05200
C1922       C  0.75188649  0.05504411  0.70975300    -0.09300
C1923       C  0.72883601  0.06864626  0.70054668     0.06100
C1924       C  0.73039197  0.09339850  0.68677592    -0.13600
Br1925     Br  0.75534704  0.08675263  0.60602277    -0.05700
Br1926     Br  0.76063609  0.20653830  0.66435925    -0.00100
Br1927     Br  0.80707096  0.04333551  0.69383638     0.00400
Br1928     Br  0.69877638  0.11241350  0.67688104    -0.04000
Br1929     Br  0.76069850  0.13324933  0.55436067     0.00500
Br1930     Br  0.75717811  0.15713734  0.71400124    -0.03300
Br1931     Br  0.81071869  0.10235139  0.66694718    -0.04200
Br1932     Br  0.69568925  0.05146860  0.69631861    -0.00200
C1933       C  0.75398672  0.34580963  0.60789750     0.01200
C1934       C  0.74482260  0.37040739  0.59751056     0.04000
C1935       C  0.74492660  0.39133771  0.61914237    -0.12000
C1936       C  0.75389494  0.38832967  0.65129807     0.23300
C1937       C  0.76316542  0.36426367  0.66186829    -0.12600
C1938       C  0.76374115  0.34318303  0.64021917     0.04700
C1939       C  0.75443112  0.41104496  0.67334387     0.27100
C1940       C  0.77488364  0.42903101  0.67075313    -0.13300
C1941       C  0.77386739  0.45223808  0.68833223     0.05200
C1942       C  0.75295214  0.45722915  0.71018941    -0.09300
C1943       C  0.73343888  0.43809953  0.71435504     0.06100
C1944       C  0.73366785  0.41564103  0.69504640    -0.13600
Br1945     Br  0.77526432  0.36048158  0.70622211    -0.05700
Br1946     Br  0.73148098  0.37683029  0.55392475    -0.00100
Br1947     Br  0.80204777  0.47649045  0.68276337     0.00400
Br1948     Br  0.70481731  0.39161252  0.69670824    -0.04000
Br1949     Br  0.78001633  0.31167986  0.65484865     0.00500
Br1950     Br  0.73256439  0.42463334  0.60483099    -0.03300
Br1951     Br  0.80405022  0.42186913  0.64219482    -0.04200
Br1952     Br  0.70588870  0.44221612  0.74572414    -0.00200
C1953       C  0.83245113  0.16851552  0.49304886     0.01200
C1954       C  0.82622899  0.14585352  0.47540297     0.04000
C1955       C  0.84483111  0.12603408  0.47231316    -0.12000
C1956       C  0.87051840  0.12942955  0.48426092     0.23300
C1957       C  0.87748784  0.15270429  0.49947472    -0.12600
C1958       C  0.85848375  0.17183952  0.50483752     0.04700
C1959       C  0.89026400  0.10852624  0.48136976     0.27100
C1960       C  0.89819445  0.09489264  0.50947468    -0.13300
C1961       C  0.91846827  0.07673763  0.50755167     0.05200
C1962       C  0.92974919  0.07089699  0.47720855    -0.09300
C1963       C  0.92083697  0.08330317  0.44877967     0.06100
C1964       C  0.90176667  0.10274241  0.45096717    -0.13600
Br1965     Br  0.91352847  0.15851675  0.51235432    -0.05700
Br1966     Br  0.79339538  0.14246213  0.45210388    -0.00100
Br1967     Br  0.93067284  0.05941710  0.54638544     0.00400
Br1968     Br  0.89196349  0.12180678  0.41247756    -0.04000
Br1969     Br  0.86890639  0.20210041  0.52904745     0.00500
Br1970     Br  0.83506604  0.09408156  0.45160274    -0.03300
Br1971     Br  0.88102740  0.10076609  0.55061906    -0.04200
Br1972     Br  0.93455761  0.07322096  0.40694782    -0.00200
C1973       C  0.56466103  0.06992768  0.50312270     0.01200
C1974       C  0.56300960  0.08784736  0.52888861     0.04000
C1975       C  0.58150207  0.10793118  0.53145333    -0.12000
C1976       C  0.60260618  0.10942768  0.50941028     0.23300
C1977       C  0.60523735  0.09058975  0.48498919    -0.12600
C1978       C  0.58603329  0.07130962  0.48134466     0.04700
C1979       C  0.62106304  0.13165561  0.51049654     0.27100
C1980       C  0.61784102  0.15220105  0.48841681    -0.13300
C1981       C  0.63600353  0.17263414  0.48800552     0.05200
C1982       C  0.65696003  0.17311890  0.51066702    -0.09300
C1983       C  0.65866279  0.15375305  0.53461402     0.06100
C1984       C  0.64156102  0.13252329  0.53361800    -0.13600
Br1985     Br  0.63496506  0.09167291  0.45601445    -0.05700
Br1986     Br  0.53536229  0.08495189  0.56062579    -0.00100
Br1987     Br  0.63223026  0.19940254  0.45577131     0.00400
Br1988     Br  0.64671161  0.10433114  0.56338777    -0.04000
Br1989     Br  0.58825233  0.04775507  0.44516638     0.00500
Br1990     Br  0.57731503  0.13419487  0.56417670    -0.03300
Br1991     Br  0.58839894  0.15220575  0.45868780    -0.04200
Br1992     Br  0.68279104  0.15762362  0.57067352    -0.00200
C1993       C  0.66351656  0.34339641  0.49906117     0.01200
C1994       C  0.65211723  0.34867248  0.46853182     0.04000
C1995       C  0.63192316  0.36679897  0.46613244    -0.12000
C1996       C  0.62435089  0.38089724  0.49390161     0.23300
C1997       C  0.63654300  0.37619552  0.52427904    -0.12600
C1998       C  0.65561313  0.35689729  0.52699517     0.04700
C1999       C  0.60363741  0.40062712  0.49098898     0.27100
C2000       C  0.60851255  0.42334613  0.47331140    -0.13300
C2001       C  0.58824604  0.44112236  0.46835795     0.05200
C2002       C  0.56404286  0.43785002  0.48435909    -0.09300
C2003       C  0.55959364  0.41565919  0.50337828     0.06100
C2004       C  0.57883905  0.39643466  0.50512425    -0.13600
Br2005     Br  0.62734686  0.39620283  0.56214529    -0.05700
Br2006     Br  0.66480313  0.33170034  0.42975313    -0.00100
Br2007     Br  0.59336859  0.46946064  0.43868142     0.00400
Br2008     Br  0.57101109  0.36411593  0.52616370    -0.04000
Br2009     Br  0.67028944  0.34836021  0.56905932     0.00500
Br2010     Br  0.61431413  0.37182264  0.42486808    -0.03300
Br2011     Br  0.64308552  0.43038975  0.45633697    -0.04200
Br2012     Br  0.52767757  0.41187129  0.52808919    -0.00200
C2013       C  0.93210027  0.43698269  0.46537966     0.01200
C2014       C  0.91337818  0.43164540  0.44088886     0.04000
C2015       C  0.89386993  0.41299928  0.44638035    -0.12000
C2016       C  0.89377790  0.39904848  0.47575970     0.23300
C2017       C  0.91233209  0.40440672  0.50023314    -0.12600
C2018       C  0.93116253  0.42363550  0.49529581     0.04700
C2019       C  0.87427284  0.37855393  0.48120023     0.27100
C2020       C  0.85051941  0.38433153  0.49666343    -0.13300
C2021       C  0.83295252  0.36455745  0.50456943     0.05200
C2022       C  0.83793343  0.33898890  0.49433714    -0.09300
C2023       C  0.86248852  0.33321141  0.47960828     0.06100
C2024       C  0.88056136  0.35304299  0.47340126    -0.13600
Br2025     Br  0.91134516  0.38572188  0.54089481    -0.05700
Br2026     Br  0.91428244  0.45003090  0.40018544    -0.00100
Br2027     Br  0.80385083  0.37273149  0.53279963     0.00400
Br2028     Br  0.91429608  0.34556947  0.45420672    -0.04000
Br2029     Br  0.95463622  0.43277202  0.53041693     0.00500
Br2030     Br  0.86657687  0.40706828  0.41454347    -0.03300
Br2031     Br  0.84222813  0.41956956  0.50710102    -0.04200
Br2032     Br  0.87258343  0.29864150  0.46772613    -0.00200
C2033       C  0.65372248  0.25237408  0.40023011     0.01200
C2034       C  0.62926824  0.26398556  0.40827872     0.04000
C2035       C  0.60761673  0.26170856  0.38712577    -0.12000
C2036       C  0.60941258  0.24678997  0.35875480     0.23300
C2037       C  0.63306004  0.23420232  0.35129689    -0.12600
C2038       C  0.65521441  0.23709660  0.37166407     0.04700
C2039       C  0.58637526  0.24458994  0.33658036     0.27100
C2040       C  0.56655229  0.22637220  0.34274029    -0.13300
C2041       C  0.54467212  0.22456481  0.32176225     0.05200
C2042       C  0.54203504  0.24163184  0.29505708    -0.09300
C2043       C  0.56324594  0.25798215  0.28727533     0.06100
C2044       C  0.58481464  0.26018173  0.30862940    -0.13600
Br2045     Br  0.63466210  0.21243833  0.31327831    -0.05700
Br2046     Br  0.62383449  0.28240744  0.44865730    -0.00100
Br2047     Br  0.51976086  0.19699570  0.32805659     0.00400
Br2048     Br  0.61282563  0.28402327  0.29925784    -0.04000
Br2049     Br  0.68649311  0.21785651  0.36137702     0.00500
Br2050     Br  0.57509008  0.27909574  0.39688547    -0.03300
Br2051     Br  0.56992003  0.20340176  0.37945300    -0.04200
Br2052     Br  0.56540026  0.27357855  0.24476831    -0.00200
C2053       C  0.94856694  0.24969240  0.29324095     0.01200
C2054       C  0.95155377  0.25114845  0.32756314     0.04000
C2055       C  0.92926219  0.25281542  0.34793204    -0.12000
C2056       C  0.90390471  0.25416759  0.33427868     0.23300
C2057       C  0.90109489  0.25565500  0.30025663    -0.12600
C2058       C  0.92324697  0.25373965  0.27992724     0.04700
C2059       C  0.88008418  0.25419653  0.35541749     0.27100
C2060       C  0.86829009  0.23074857  0.36461315    -0.13300
C2061       C  0.84543408  0.23067841  0.38388833     0.05200
C2062       C  0.83392763  0.25403673  0.39356350    -0.09300
C2063       C  0.84538909  0.27747106  0.38390915     0.06100
C2064       C  0.86849682  0.27756699  0.36511746    -0.13600
Br2065     Br  0.86659649  0.26040130  0.28165605    -0.05700
Br2066     Br  0.98571513  0.25219014  0.34737966    -0.00100
Br2067     Br  0.83018066  0.19860844  0.39791740     0.00400
Br2068     Br  0.88457748  0.30970328  0.35306410    -0.04000
Br2069     Br  0.91890254  0.25943981  0.23399269     0.00500
Br2070     Br  0.93321049  0.25320613  0.39472112    -0.03300
Br2071     Br  0.88366186  0.19870251  0.35099698    -0.04200
Br2072     Br  0.82961418  0.30947055  0.39712886    -0.00200
C2073       C  0.75120497  0.45438571  0.29302252     0.01200
C2074       C  0.76673234  0.44958050  0.32123702     0.04000
C2075       C  0.76464752  0.42614521  0.33814379    -0.12000
C2076       C  0.74621364  0.40763651  0.32826856     0.23300
C2077       C  0.73215426  0.41122874  0.29914560    -0.12600
C2078       C  0.73617433  0.43352209  0.28020367     0.04700
C2079       C  0.74201679  0.38452799  0.34895485     0.27100
C2080       C  0.75387960  0.36099528  0.34096245    -0.13300
C2081       C  0.75299678  0.34018716  0.36296442     0.05200
C2082       C  0.74177141  0.34334834  0.39437379    -0.09300
C2083       C  0.72982543  0.36733627  0.40207851     0.06100
C2084       C  0.72890003  0.38718148  0.37879660    -0.13600
Br2085     Br  0.70658993  0.38582237  0.28592371    -0.05700
Br2086     Br  0.79282542  0.47379611  0.33597230    -0.00100
Br2087     Br  0.76934891  0.30833469  0.35002484     0.00400
Br2088     Br  0.71054805  0.41887169  0.38802998    -0.04000
Br2089     Br  0.72300568  0.43246563  0.23608629     0.00500
Br2090     Br  0.78694019  0.41914795  0.37538149    -0.03300
Br2091     Br  0.77301364  0.35798509  0.30060234    -0.04200
Br2092     Br  0.71561805  0.37473521  0.44467877    -0.00200
C2093       C  0.74434607  0.05187944  0.30472130     0.01200
C2094       C  0.76571088  0.06259925  0.32240839     0.04000
C2095       C  0.76304436  0.08616375  0.33908148    -0.12000
C2096       C  0.73887816  0.09918892  0.33903935     0.23300
C2097       C  0.71692926  0.08741739  0.32460018    -0.12600
C2098       C  0.71918779  0.06276157  0.31082596     0.04700
C2099       C  0.73592280  0.12329852  0.35825917     0.27100
C2100       C  0.72358919  0.12261897  0.38891841    -0.13300
C2101       C  0.72289135  0.14475625  0.40848417     0.05200
C2102       C  0.73637888  0.16736209  0.39875449    -0.09300
C2103       C  0.74755664  0.16834785  0.36719360     0.06100
C2104       C  0.74671054  0.14653807  0.34685984    -0.13600
Br2105     Br  0.68347141  0.10479606  0.32448393    -0.05700
Br2106     Br  0.79694559  0.04324688  0.33039756    -0.00100
Br2107     Br  0.70196538  0.14386291  0.44772062     0.00400
Br2108     Br  0.76066206  0.14823116  0.30328357    -0.04000
Br2109     Br  0.68790759  0.04172427  0.31070529     0.00500
Br2110     Br  0.79227171  0.10019558  0.36349816    -0.03300
Br2111     Br  0.70831607  0.09099349  0.40483910    -0.04200
Br2112     Br  0.76536358  0.19873705  0.35159519    -0.00200
O2113       O  0.73988046  0.71231490  0.41176075    -0.80300
O2114       O  0.75109442  0.71399505  0.59765206    -0.81800
O2115       O  0.78810412  0.68218890  0.50149734    -0.78800
O2116       O  0.70183345  0.68512046  0.50820855    -0.77200
O2117       O  0.67072564  0.71662971  0.50820861    -0.79000
O2118       O  0.82003210  0.71254673  0.49717016    -0.79900
O2119       O  0.74829044  0.68425833  0.55764781    -0.81300
O2120       O  0.74259338  0.68263603  0.45254558    -0.81600
Eu2121     Eu  0.74577896  0.70483995  0.50474969     2.39200
O2122       O  0.72046334  0.73106139  0.53894851    -0.89100
O2123       O  0.77167062  0.72961745  0.46951387    -0.92700
C2124       C  0.73979454  0.68893168  0.42237446     1.02000
C2125       C  0.75120469  0.69041145  0.58766603     1.01800
C2126       C  0.81225573  0.68902864  0.49775150     1.01800
C2127       C  0.67778193  0.69290372  0.50895506     0.99600
H2128       H  0.78508035  0.71959998  0.54996125     0.29400
O2129       O  0.77363203  0.73036563  0.53706541    -1.01500
H2130       H  0.70742766  0.71973933  0.45930846     0.29400
O2131       O  0.71924971  0.73056697  0.47152006    -1.04000
O2132       O  0.74958940  0.80048287  0.59628628    -0.81200
O2133       O  0.74171607  0.79869183  0.41011796    -0.80800
O2134       O  0.82295394  0.75695662  0.55443961    -0.79200
O2135       O  0.67265116  0.75723259  0.55739351    -0.82500
O2136       O  0.67126861  0.75404163  0.45361545    -0.80400
O2137       O  0.82025007  0.75440069  0.44799425    -0.79000
O2138       O  0.79278784  0.82698421  0.49638442    -0.80600
O2139       O  0.70732286  0.83008990  0.50270744    -0.82500
O2140       O  0.82351522  0.79567406  0.50090231    -0.79200
O2141       O  0.67469079  0.79981861  0.50218330    -0.81900
O2142       O  0.79250543  0.75882209  0.59548279    -0.77600
O2143       O  0.78838603  0.75410698  0.40830305    -0.77700
O2144       O  0.70011188  0.75586680  0.41143502    -0.77300
O2145       O  0.70342779  0.75801011  0.59780253    -0.80800
O2146       O  0.75524892  0.82865887  0.55449438    -0.80200
O2147       O  0.74723069  0.82923752  0.44926246    -0.78600
Eu2148     Eu  0.74795608  0.75706154  0.57133733     2.39800
Eu2149     Eu  0.74487178  0.75557986  0.43585189     2.39600
Eu2150     Eu  0.79975866  0.75493978  0.50176618     2.38400
Eu2151     Eu  0.69465730  0.75730444  0.50521913     2.39900
Eu2152     Eu  0.74922868  0.80745515  0.50200297     2.39800
O2153       O  0.72055368  0.78239095  0.47037225    -0.93000
O2154       O  0.77471010  0.78133716  0.53580014    -0.91900
C2155       C  0.75311236  0.82345167  0.58498748     1.02200
C2156       C  0.74358368  0.82237738  0.41945150     1.00900
C2157       C  0.81633450  0.75844322  0.58472809     1.00300
C2158       C  0.67923408  0.75776086  0.58759742     1.02300
C2159       C  0.67654765  0.75438658  0.42304105     1.01200
C2160       C  0.81262310  0.75406714  0.41803634     1.00100
C2161       C  0.81679590  0.81932054  0.49767764     1.00100
C2162       C  0.68310447  0.82312362  0.50177297     1.02700
H2163       H  0.78446768  0.79123197  0.45352715     0.30100
O2164       O  0.77365871  0.78086780  0.46769858    -1.05100
H2165       H  0.71166837  0.79484893  0.55043987     0.32200
O2166       O  0.72212051  0.78345319  0.53725917    -1.07700
N2167       N  0.53626289  0.50446576  0.48759722    -0.36700
N2168       N  0.99770767  0.96615515  0.47038533    -0.57300
N2169       N  0.95775794  0.50497569  0.46648074    -0.36700
N2170       N  0.99707321  0.54362873  0.48483566    -0.57300
C2171       C  0.54900509  0.98264018  0.49547234     0.26800
C2172       C  0.54909436  0.52408186  0.50226957     0.26800
C2173       C  0.94295741  0.98356958  0.46873238     0.26800
C2174       C  0.94243229  0.52500666  0.47480733     0.26800
C2175       C  0.51961775  0.95226956  0.46638829     0.35500
C2176       C  0.97795833  0.95233455  0.45721899     0.35500
C2177       C  0.51836087  0.55877975  0.48691722     0.35500
C2178       C  0.97680107  0.55900142  0.47654461     0.35500
C2179       C  0.57010814  0.98839134  0.51568176    -0.22000
C2180       C  0.57030091  0.51458971  0.51968554    -0.22000
C2181       C  0.91771484  0.99014140  0.47789658    -0.22000
C2182       C  0.91728354  0.51631327  0.48157973    -0.22000
C2183       C  0.51403614  0.92974617  0.44965565    -0.23100
C2184       C  0.98743468  0.92971263  0.44412497    -0.23100
C2185       C  0.51169457  0.58398143  0.47995068    -0.23100
C2186       C  0.98533847  0.58418425  0.47370455    -0.23100
C2187       C  0.54366567  0.95819634  0.48181485    -0.18400
C2188       C  0.54336245  0.55040566  0.49764340    -0.18400
C2189       C  0.95031526  0.55101054  0.47509180    -0.18400
C2190       C  0.95133641  0.95837530  0.46161050    -0.18400
H2191       H  0.58443567  0.97513942  0.52551591     0.14500
H2192       H  0.58467130  0.52552101  0.53333548     0.14500
H2193       H  0.90115250  0.97743194  0.48140764     0.14500
H2194       H  0.90039230  0.52762257  0.48840640     0.14500
H2195       H  0.52753055  0.91448674  0.44350550     0.12800
H2196       H  0.97617129  0.91442376  0.43295365     0.12800
H2197       H  0.52440125  0.60063714  0.48029850     0.12800
H2198       H  0.97361531  0.60096632  0.46826513     0.12800
H2199       H  0.52202470  0.50626177  0.46953868     0.26000
H2200       H  0.97659282  0.50628345  0.45694778     0.26000
O2201       O  0.99936225  0.94348979  0.91161737    -0.80300
O2202       O  0.00291771  0.95068322  0.09936274    -0.81800
O2203       O  0.55010568  0.92170775  0.00157944    -0.78800
O2204       O  0.96628849  0.91308916  0.00553304    -0.77200
O2205       O  0.93148899  0.94074816  0.00453345    -0.79000
O2206       O  0.57916588  0.95467271  0.00507990    -0.79900
O2207       O  0.00700140  0.91899621  0.06081925    -0.81300
O2208       O  0.00411453  0.91490716  0.95311203    -0.81600
Eu2209     Eu  0.00587486  0.93864168  0.00597574     2.39200
O2210       O  0.97756887  0.96298454  0.03951193    -0.89100
O2211       O  0.53012838  0.96538658  0.97164676    -0.92700
C2212       C  0.00074162  0.92028459  0.92253219     1.02000
C2213       C  0.00503531  0.92687747  0.09058389     1.01800
C2214       C  0.57361107  0.93056062  0.00282526     1.01800
C2215       C  0.94166293  0.91795459  0.00416348     0.99600
H2216       H  0.54189467  0.95807084  0.05227455     0.29400
O2217       O  0.53000504  0.96766137  0.03856134    -1.01500
H2218       H  0.96642482  0.94944524  0.95964194     0.29400
O2219       O  0.97691795  0.96127780  0.97226764    -1.04000
O2220       O  0.00327169  0.53775486  0.09192694    -0.81200
O2221       O  0.99739036  0.52777585  0.90583884    -0.80800
O2222       O  0.57590839  0.99805436  0.05668862    -0.79200
O2223       O  0.92693804  0.98885090  0.05936318    -0.82500
O2224       O  0.92686242  0.98606817  0.95238762    -0.80400
O2225       O  0.57730088  0.99209878  0.95305541    -0.79000
O2226       O  0.53527486  0.56756313  0.99595540    -0.80600
O2227       O  0.95258532  0.55887459  0.99753552    -0.82500
O2228       O  0.57013513  0.54012406  0.00030587    -0.79200
O2229       O  0.92342077  0.52579158  0.00249194    -0.81900
O2230       O  0.54562870  0.99501517  0.09756242    -0.77600
O2231       O  0.54726308  0.48639882  0.91198052    -0.77700
O2232       O  0.95651018  0.48440398  0.91127910    -0.77300
O2233       O  0.95842129  0.99506332  0.09845927    -0.80800
O2234       O  0.99639262  0.56497766  0.04969470    -0.80200
O2235       O  0.99368432  0.55944750  0.94415674    -0.78600
Eu2236     Eu  0.00187280  0.99289758  0.07097579     2.39800
Eu2237     Eu  0.00137742  0.98681383  0.93574983     2.39600
Eu2238     Eu  0.55385735  0.99496829  0.00385420     2.38400
Eu2239     Eu  0.94848142  0.98544213  0.00538329     2.39900
Eu2240     Eu  0.99653748  0.54079225  0.99888790     2.39800
O2241       O  0.97250667  0.51103689  0.96865508    -0.93000
O2242       O  0.52530091  0.51979119  0.03507040    -0.91900
C2243       C  0.00021754  0.56060798  0.08014437     1.02200
C2244       C  0.99460780  0.55148590  0.91444148     1.00900
C2245       C  0.56946811  0.99676165  0.08698250     1.00300
C2246       C  0.93417640  0.99308924  0.08916817     1.02300
C2247       C  0.93262579  0.48525444  0.92196887     1.01200
C2248       C  0.57118933  0.48889946  0.92291566     1.00100
C2249       C  0.55991348  0.56279516  0.99741453     1.00100
C2250       C  0.92918924  0.54985275  0.99984910     1.02700
H2251       H  0.53581021  0.52760158  0.95299669     0.30100
O2252       O  0.52574654  0.51658681  0.96723577    -1.05100
H2253       H  0.96159224  0.52605509  0.04833907     0.32200
O2254       O  0.97304852  0.51512363  0.03578777    -1.07700
N2255       N  0.79171058  0.73636421  0.98547573    -0.36700
N2256       N  0.74801805  0.70139071  0.98734776    -0.57300
N2257       N  0.71230150  0.74395055  0.98718632    -0.36700
N2258       N  0.75556920  0.77904349  0.98471193    -0.57300
C2259       C  0.80358270  0.71433398  0.99482188     0.26800
C2260       C  0.80764190  0.75601880  0.99394282     0.26800
C2261       C  0.69694749  0.72456114  0.99787970     0.26800
C2262       C  0.70077971  0.76616847  0.99611748     0.26800
C2263       C  0.76754834  0.68511331  0.97964543     0.35500
C2264       C  0.72540415  0.68935849  0.97973620     0.35500
C2265       C  0.77803177  0.79144333  0.97761326     0.35500
C2266       C  0.73582886  0.79546889  0.97809473     0.35500
C2267       C  0.82754552  0.71998755  0.00920241    -0.22000
C2268       C  0.83009930  0.74638331  0.00870503    -0.22000
C2269       C  0.67552681  0.73457840  0.01428942    -0.22000
C2270       C  0.67783598  0.76095397  0.01289817    -0.22000
C2271       C  0.75743635  0.66262760  0.96669163    -0.23100
C2272       C  0.73060593  0.66546635  0.96629720    -0.23100
C2273       C  0.77258521  0.81589856  0.96599630    -0.23100
C2274       C  0.74571512  0.81846397  0.96634021    -0.23100
C2275       C  0.79391333  0.68939123  0.98822370    -0.18400
C2276       C  0.80308989  0.78212638  0.98617408    -0.18400
C2277       C  0.70953966  0.79079114  0.98677490    -0.18400
C2278       C  0.70058255  0.69846371  0.98949797    -0.18400
H2279       H  0.84183441  0.70650019  0.01859135     0.14500
H2280       H  0.84676980  0.75721075  0.01762594     0.14500
H2281       H  0.65943310  0.72401382  0.02501174     0.14500
H2282       H  0.66397802  0.77471135  0.02251097     0.14500
H2283       H  0.76822361  0.64574727  0.95923916     0.12800
H2284       H  0.71653853  0.65110626  0.95860856     0.12800
H2285       H  0.78653811  0.83067123  0.95937267     0.12800
H2286       H  0.73479595  0.83557565  0.96000231     0.12800
H2287       H  0.77514804  0.73773139  0.97067630     0.26000
H2288       H  0.72773550  0.74221243  0.97076802     0.26000
C2289       C  0.99429333  0.71876816  0.22839379     0.86400
C2290       C  0.51718772  0.71815618  0.25284725    -0.53900
C2291       C  0.51911819  0.73913404  0.27238311     0.09300
C2292       C  0.99622960  0.75885328  0.26703974     0.20200
C2293       C  0.97037523  0.72170287  0.25134740    -0.54600
C2294       C  0.97096022  0.74289813  0.27110532     0.09400
C2295       C  0.99715690  0.74463144  0.21093870    -0.54100
C2296       C  0.99676877  0.76620990  0.23020698     0.09900
H2297       H  0.53108219  0.70240460  0.25437126     0.14500
H2298       H  0.99631787  0.77482270  0.28439184     0.00200
H2299       H  0.95487228  0.70761562  0.25361389     0.14800
H2300       H  0.99995659  0.74537950  0.18479281     0.14600
C2301       C  0.74773859  0.52868212  0.28140662     0.86400
C2302       C  0.77306414  0.52801695  0.26041107    -0.53900
C2303       C  0.77567860  0.00663151  0.24039356     0.09300
C2304       C  0.75160120  0.98853009  0.24285479     0.20200
C2305       C  0.72628193  0.52703620  0.25535699    -0.54600
C2306       C  0.72734697  0.00590119  0.23589898     0.09400
C2307       C  0.74696887  0.00247982  0.29890050    -0.54100
C2308       C  0.74967735  0.98128247  0.27924417     0.09900
H2309       H  0.78741549  0.54340355  0.26071077     0.14500
H2310       H  0.75360451  0.97168678  0.22715142     0.00200
H2311       H  0.71137372  0.54161206  0.25169307     0.14800
H2312       H  0.74444476  0.00104247  0.32509186     0.14600
C2313       C  0.99699494  0.71347300  0.77603724     0.86400
C2314       C  0.97240141  0.71726945  0.75457906    -0.53900
C2315       C  0.97193919  0.73929254  0.73646676     0.09300
C2316       C  0.99660928  0.75629746  0.74198155     0.20200
C2317       C  0.52039363  0.71681680  0.75316443    -0.54600
C2318       C  0.52040656  0.73877479  0.73492004     0.09400
C2319       C  0.99681040  0.73828326  0.79684009    -0.54100
C2320       C  0.99728827  0.76078775  0.77933681     0.09900
H2321       H  0.95594150  0.70405545  0.75468883     0.14500
H2322       H  0.99651725  0.77426101  0.72745801     0.00200
H2323       H  0.53592453  0.70261411  0.75155191     0.14800
H2324       H  0.99542162  0.73831913  0.82318839     0.14600
C2325       C  0.75085176  0.52989846  0.73037594     0.86400
C2326       C  0.72755856  0.52684058  0.75426694    -0.53900
C2327       C  0.72722202  0.00430427  0.77181654     0.09300
C2328       C  0.75139614  0.98721706  0.76459452     0.20200
C2329       C  0.77448443  0.52696290  0.75326186    -0.54600
C2330       C  0.77527712  0.00503363  0.77116727     0.08200
C2331       C  0.75037445  0.00552683  0.70986071    -0.54100
C2332       C  0.75102615  0.98302162  0.72711938     0.09900
H2333       H  0.71287229  0.54155011  0.75811673     0.14500
H2334       H  0.75169560  0.96908643  0.77876454     0.00200
H2335       H  0.78930779  0.54174473  0.75606471     0.14800
H2336       H  0.75009321  0.00600081  0.68340667     0.14600
C2337       C  0.59158174  0.99625335  0.11063506     0.01200
C2338       C  0.61254654  0.97891329  0.10556880     0.04000
C2339       C  0.63508290  0.97992866  0.12532765    -0.12000
C2340       C  0.63663934  0.99768994  0.15100580     0.23300
C2341       C  0.61531517  0.51439801  0.15727186    -0.12600
C2342       C  0.59297850  0.51392530  0.13687145     0.04700
C2343       C  0.66059589  0.99869362  0.17173103     0.27100
C2344       C  0.66180126  0.98426623  0.20066056    -0.13300
C2345       C  0.68344307  0.98685957  0.22178577     0.05200
C2346       C  0.70563110  0.00132449  0.21218850    -0.09300
C2347       C  0.70413017  0.01616019  0.18333097     0.06100
C2348       C  0.68161234  0.01494589  0.16332474    -0.13600
Br2349     Br  0.61697752  0.53776829  0.19368610    -0.05700
Br2350     Br  0.61031405  0.95276364  0.07242674    -0.00100
Br2351     Br  0.68005429  0.97476172  0.26604307     0.00400
Br2352     Br  0.67879176  0.03646367  0.12516239    -0.04000
Br2353     Br  0.56516161  0.53825544  0.14398553     0.00500
Br2354     Br  0.66402430  0.95693144  0.11730004    -0.03300
Br2355     Br  0.63318323  0.96163356  0.21176489    -0.04200
Br2356     Br  0.73149670  0.54068036  0.17321663    -0.00200
C2357       C  0.79963014  0.00182080  0.21894864     0.01200
C2358       C  0.79760057  0.99252256  0.18626826     0.04000
C2359       C  0.82026536  0.98985877  0.16661825    -0.12000
C2360       C  0.84510977  0.99756338  0.17826427     0.23300
C2361       C  0.84730339  0.50675817  0.21042521    -0.12600
C2362       C  0.82526444  0.50713959  0.23106903     0.04700
C2363       C  0.86866981  0.99713475  0.15641968     0.27100
C2364       C  0.89001949  0.98052026  0.16266110    -0.13300
C2365       C  0.91284284  0.98179744  0.14328459     0.05200
C2366       C  0.91282367  0.99615531  0.11401084    -0.09300
C2367       C  0.89146871  0.51306768  0.10805173     0.06100
C2368       C  0.87036207  0.51465297  0.13011413    -0.13600
Br2369     Br  0.88070888  0.51960772  0.22605024    -0.05700
Br2370     Br  0.76458688  0.98341542  0.16633429    -0.00100
Br2371     Br  0.94443829  0.96571632  0.15896304     0.00400
Br2372     Br  0.84422217  0.54127814  0.12512138    -0.04000
Br2373     Br  0.83209661  0.51071883  0.27676744     0.00500
Br2374     Br  0.81738302  0.97599424  0.12298390    -0.03300
Br2375     Br  0.88788995  0.95541568  0.19720384    -0.04200
Br2376     Br  0.89161708  0.53559258  0.07096701    -0.00200
C2377       C  0.00431074  0.90679063  0.11628907     0.01200
C2378       C  0.97996757  0.89764087  0.12764704     0.04000
C2379       C  0.97890169  0.87685372  0.14959620    -0.12000
C2380       C  0.00215156  0.86432524  0.15951060     0.23300
C2381       C  0.52681812  0.87415643  0.14934677    -0.12600
C2382       C  0.52778158  0.89550089  0.12807153     0.04700
C2383       C  0.00046770  0.83997385  0.17882445     0.27100
C2384       C  0.50719639  0.83925514  0.21237613    -0.13300
C2385       C  0.50656582  0.81575171  0.22995258     0.05200
C2386       C  0.99587500  0.79304018  0.21489738    -0.09300
C2387       C  0.98497789  0.79586790  0.18295615     0.06100
C2388       C  0.99019624  0.81780456  0.16414682    -0.13600
Br2389     Br  0.55893539  0.85793849  0.16341460    -0.05700
Br2390     Br  0.94784710  0.91256169  0.11157575    -0.00100
Br2391     Br  0.52039026  0.81701463  0.27371672     0.00400
Br2392     Br  0.98285127  0.81745599  0.11786093    -0.04000
Br2393     Br  0.56110740  0.90924994  0.11455000     0.00500
Br2394     Br  0.94538531  0.86505045  0.16556355    -0.03300
Br2395     Br  0.51600525  0.87112198  0.23399847    -0.04200
Br2396     Br  0.95846346  0.77281914  0.16581511    -0.00200
C2397       C  0.99444302  0.69596198  0.20393680     0.01200
C2398       C  0.51857634  0.68754109  0.19017058     0.04000
C2399       C  0.51974913  0.66446408  0.17229238    -0.12000
C2400       C  0.99674944  0.65069133  0.16505303     0.23300
C2401       C  0.97238244  0.66085692  0.17420099    -0.12600
C2402       C  0.97104278  0.68382043  0.19241168     0.04700
C2403       C  0.99788349  0.62753283  0.14382872     0.27100
C2404       C  0.99919108  0.63056896  0.10993379    -0.13300
C2405       C  0.00236478  0.60908695  0.08955779     0.05200
C2406       C  0.00066981  0.58360253  0.10259383    -0.09300
C2407       C  0.49821113  0.58092716  0.13714309     0.06100
C2408       C  0.49754352  0.60284753  0.15740456    -0.13600
Br2409     Br  0.94073117  0.64373227  0.15969357    -0.05700
Br2410     Br  0.54973659  0.70890459  0.19055752    -0.00100
Br2411     Br  0.01092744  0.61638572  0.04444952     0.00400
Br2412     Br  0.49507186  0.59928764  0.20414320    -0.04000
Br2413     Br  0.93736232  0.70065330  0.19339475     0.00500
Br2414     Br  0.55304095  0.65162596  0.15688729    -0.03300
Br2415     Br  0.99523396  0.66456205  0.09142497    -0.04200
Br2416     Br  0.49497289  0.54783977  0.15829558    -0.00200
C2417       C  0.59532564  0.91138998  0.00124091     0.01200
C2418       C  0.59110253  0.88591530  0.01277525     0.04000
C2419       C  0.61017648  0.86692200  0.00799164    -0.12000
C2420       C  0.63421954  0.87322330  0.99356927     0.23300
C2421       C  0.63911158  0.89842686  0.98293568    -0.12600
C2422       C  0.61980723  0.91754241  0.98658512     0.04700
C2423       C  0.65455531  0.85316774  0.99060418     0.27100
C2424       C  0.67344395  0.85030267  0.01544813    -0.13300
C2425       C  0.69180339  0.83025287  0.01382762     0.05200
C2426       C  0.69077948  0.81256647  0.98784797    -0.09300
C2427       C  0.67122081  0.81492754  0.96363423     0.06100
C2428       C  0.65338793  0.83545626  0.96473898    -0.13600
Br2429     Br  0.67212486  0.90626820  0.96218400    -0.05700
Br2430     Br  0.56012275  0.87621812  0.03706299    -0.00100
Br2431     Br  0.71730979  0.82604764  0.04824200     0.00400
Br2432     Br  0.62635464  0.83867615  0.93191676    -0.04000
Br2433     Br  0.62757450  0.95152818  0.97015189     0.00500
Br2434     Br  0.60328290  0.83171534  0.02054017    -0.03300
Br2435     Br  0.67284466  0.87283181  0.05278797    -0.04200
Br2436     Br  0.66814577  0.78946903  0.92971748    -0.00200
C2437       C  0.92398510  0.89577870  0.99990236     0.01200
C2438       C  0.92602077  0.87364086  0.01973217     0.04000
C2439       C  0.90755224  0.85378875  0.01636711    -0.12000
C2440       C  0.88701440  0.85620811  0.99361656     0.23300
C2441       C  0.88682382  0.87683476  0.97143919    -0.12600
C2442       C  0.90643113  0.89561496  0.97337060     0.04700
C2443       C  0.86614311  0.83663466  0.99237931     0.27100
C2444       C  0.86632046  0.81780030  0.96781801    -0.13300
C2445       C  0.84574893  0.79992677  0.96581590     0.05200
C2446       C  0.82513498  0.80070584  0.98865169    -0.09300
C2447       C  0.82541256  0.81923998  0.01378409     0.06100
C2448       C  0.84611416  0.83693894  0.01588414    -0.13600
Br2449     Br  0.86008558  0.87929324  0.93817131    -0.05700
Br2450     Br  0.95506688  0.86890590  0.04926953    -0.00100
Br2451     Br  0.84545308  0.77494385  0.93113175     0.00400
Br2452     Br  0.84747958  0.86125421  0.05142982    -0.04000
Br2453     Br  0.91356544  0.91670604  0.93584240     0.00500
Br2454     Br  0.91048455  0.82294060  0.04227891    -0.03300
Br2455     Br  0.89515333  0.81628331  0.93746360    -0.04200
Br2456     Br  0.79746316  0.82062070  0.04536434    -0.00200
C2457       C  0.90753621  0.56864501  0.00039944     0.01200
C2458       C  0.88577992  0.56565784  0.97945796     0.04000
C2459       C  0.86485649  0.58313313  0.98079525    -0.12000
C2460       C  0.86626296  0.60454278  0.00168773     0.23300
C2461       C  0.88785587  0.60752686  0.02281735    -0.12600
C2462       C  0.90843595  0.58962304  0.02226119     0.04700
C2463       C  0.84698598  0.62562372  0.99815267     0.27100
C2464       C  0.84925974  0.64261037  0.97155031    -0.13300
C2465       C  0.83129217  0.66280091  0.96770851     0.05200
C2466       C  0.81178361  0.66693810  0.99131528    -0.09300
C2467       C  0.80930766  0.64975819  0.01780132     0.06100
C2468       C  0.82678864  0.62900018  0.02108507    -0.13600
Br2469     Br  0.88950889  0.63654515  0.05204343    -0.05700
Br2470     Br  0.88585225  0.53957979  0.94623737    -0.00100
Br2471     Br  0.83260727  0.68409947  0.92929359     0.00400
Br2472     Br  0.82335473  0.60535390  0.05707563    -0.04000
Br2473     Br  0.93757360  0.59402193  0.05194148     0.00500
Br2474     Br  0.83448234  0.57826025  0.95329199    -0.03300
Br2475     Br  0.87752858  0.63855062  0.94074256    -0.04200
Br2476     Br  0.78208950  0.65468245  0.04968621    -0.00200
C2477       C  0.57754346  0.58517198  0.99637709     0.01200
C2478       C  0.58429656  0.59648493  0.96644351     0.04000
C2479       C  0.60428967  0.61498813  0.96516779    -0.12000
C2480       C  0.61416810  0.62570410  0.99433017     0.23300
C2481       C  0.60426375  0.61696866  0.02459859    -0.12600
C2482       C  0.58678353  0.59604309  0.02556151     0.04700
C2483       C  0.63588657  0.64482754  0.99331833     0.27100
C2484       C  0.66032060  0.63857648  0.00733502    -0.13300
C2485       C  0.67999935  0.65730350  0.00972837     0.05200
C2486       C  0.67798177  0.68020304  0.99136453    -0.09300
C2487       C  0.65456007  0.68517629  0.97393112     0.06100
C2488       C  0.63275783  0.66887218  0.97777769    -0.13600
Br2489     Br  0.61491521  0.63314182  0.06485605    -0.05700
Br2490     Br  0.56452449  0.58868418  0.92776346    -0.00100
Br2491     Br  0.70874675  0.65162246  0.03955933     0.00400
Br2492     Br  0.59883714  0.67986564  0.96207085    -0.04000
Br2493     Br  0.57437798  0.58289751  0.06671200     0.00500
Br2494     Br  0.61958735  0.62347912  0.92351499    -0.03300
Br2495     Br  0.66779568  0.60379105  0.02086455    -0.04200
Br2496     Br  0.65279402  0.71284700  0.94260424    -0.00200
C2497       C  0.79711119  0.00050168  0.79510111     0.01200
C2498       C  0.81227597  0.97776311  0.79397855     0.04000
C2499       C  0.83464296  0.97507336  0.81391811    -0.12000
C2500       C  0.84240093  0.99508418  0.83479213     0.23300
C2501       C  0.82722262  0.51753049  0.83652714    -0.12600
C2502       C  0.80442078  0.52007698  0.81730805     0.04700
C2503       C  0.86566236  0.99170884  0.85631394     0.27100
C2504       C  0.86216901  0.48253100  0.88804745    -0.13300
C2505       C  0.88376886  0.47976771  0.90920134     0.05200
C2506       C  0.90981297  0.98579880  0.89837608    -0.09300
C2507       C  0.91302026  0.99435373  0.86556730     0.06100
C2508       C  0.89098264  0.99730489  0.84493578    -0.13600
Br2509     Br  0.83791789  0.54488411  0.86547549    -0.05700
Br2510     Br  0.80378918  0.95028835  0.76452125    -0.00100
Br2511     Br  0.87557035  0.46826558  0.95307333     0.00400
Br2512     Br  0.89506533  0.00931737  0.80067136    -0.04000
Br2513     Br  0.78273709  0.55019556  0.82343143     0.00500
Br2514     Br  0.85512406  0.94390494  0.81270968    -0.03300
Br2515     Br  0.82711215  0.47375002  0.90236982    -0.04200
Br2516     Br  0.94687036  0.00363987  0.84788978    -0.00200
C2517       C  0.59390962  0.98867016  0.90016490     0.01200
C2518       C  0.61233711  0.50908791  0.90098535     0.04000
C2519       C  0.63468581  0.50874098  0.88094125    -0.12000
C2520       C  0.63947516  0.98769110  0.86048281     0.23300
C2521       C  0.62202974  0.96662184  0.86074635    -0.12600
C2522       C  0.59958467  0.96692659  0.88090670     0.04700
C2523       C  0.66200823  0.98869962  0.83730750     0.27100
C2524       C  0.65749539  0.49573067  0.80452385    -0.13300
C2525       C  0.67867011  0.49861034  0.78290664     0.05200
C2526       C  0.70499788  0.99727948  0.79444433    -0.09300
C2527       C  0.70938316  0.98965417  0.82725356     0.06100
C2528       C  0.68791339  0.98429482  0.84801973    -0.13600
Br2529     Br  0.62921140  0.93726006  0.83363806    -0.05700
Br2530     Br  0.60784371  0.53748663  0.93045872    -0.00100
Br2531     Br  0.67083187  0.50165246  0.73723767     0.00400
Br2532     Br  0.69362448  0.97080736  0.89128655    -0.04000
Br2533     Br  0.57856037  0.93640007  0.88511707     0.00500
Br2534     Br  0.65881114  0.53741010  0.88144626    -0.03300
Br2535     Br  0.62205927  0.50194227  0.78964739    -0.04200
Br2536     Br  0.74425408  0.98804833  0.84524131    -0.00200
C2537       C  0.99281970  0.57151805  0.88886314     0.01200
C2538       C  0.97191895  0.58931152  0.88941979     0.04000
C2539       C  0.97249040  0.61119483  0.86925357    -0.12000
C2540       C  0.99407202  0.61560322  0.84866070     0.23300
C2541       C  0.51458616  0.59767799  0.84749637    -0.12600
C2542       C  0.51362488  0.57525296  0.86672121     0.04700
C2543       C  0.99587678  0.63994659  0.82966043     0.27100
C2544       C  0.98670395  0.64108623  0.79742509    -0.13300
C2545       C  0.98866209  0.66413048  0.77939150     0.05200
C2546       C  0.99804111  0.68721595  0.79437954    -0.09300
C2547       C  0.51111806  0.68445113  0.82507441     0.06100
C2548       C  0.50884929  0.66148175  0.84314935    -0.13600
Br2549     Br  0.54480335  0.60450456  0.82068910    -0.05700
Br2550     Br  0.94215341  0.58347291  0.91741677    -0.00100
Br2551     Br  0.98260211  0.66164992  0.73297634     0.00400
Br2552     Br  0.52513007  0.65836162  0.88564176    -0.04000
Br2553     Br  0.54140789  0.55018948  0.86346945     0.00500
Br2554     Br  0.94421023  0.63574849  0.87067794    -0.03300
Br2555     Br  0.97266765  0.61030535  0.77762708    -0.04200
Br2556     Br  0.53728087  0.70842155  0.83981644    -0.00200
C2557       C  0.99795329  0.89835530  0.89847334     0.01200
C2558       C  0.50545795  0.90110994  0.86510773     0.04000
C2559       C  0.50485647  0.87975653  0.84379630    -0.12000
C2560       C  0.99605102  0.85562918  0.85491310     0.23300
C2561       C  0.98639488  0.85324532  0.88675263    -0.12600
C2562       C  0.98740985  0.87423187  0.90846443     0.04700
C2563       C  0.99737242  0.83253541  0.83341215     0.27100
C2564       C  0.97769289  0.82777155  0.81007265    -0.13300
C2565       C  0.97845076  0.80531817  0.79082116     0.05200
C2566       C  0.99829930  0.78665152  0.79581031    -0.09300
C2567       C  0.51889999  0.79251656  0.81775613     0.06100
C2568       C  0.51840520  0.81521428  0.83645405    -0.13600
Br2569     Br  0.97116743  0.82088291  0.90014085    -0.05700
Br2570     Br  0.51611739  0.93369523  0.84680886    -0.00100
Br2571     Br  0.95206814  0.80114200  0.75780221     0.00400
Br2572     Br  0.54639318  0.82257092  0.86692224    -0.04000
Br2573     Br  0.97235023  0.86925231  0.95099325     0.00500
Br2574     Br  0.51593386  0.88319039  0.79898612    -0.03300
Br2575     Br  0.94911184  0.85182958  0.80542733    -0.04200
Br2576     Br  0.54937013  0.77079602  0.82065839    -0.00200
C2577       C  0.83780605  0.75816959  0.60902010     0.01200
C2578       C  0.85153962  0.78081039  0.61725215     0.04000
C2579       C  0.87253631  0.77982916  0.63979016    -0.12000
C2580       C  0.88026356  0.75611116  0.65353040     0.23300
C2581       C  0.86652373  0.73353234  0.64499827    -0.12600
C2582       C  0.84531384  0.73460957  0.62299560     0.04700
C2583       C  0.90378830  0.75440576  0.67527991     0.27100
C2584       C  0.92909055  0.75387702  0.66167060    -0.13300
C2585       C  0.95137968  0.75051549  0.68173316     0.05200
C2586       C  0.94857442  0.74616888  0.71559783    -0.09300
C2587       C  0.92297489  0.74710016  0.72924196     0.06100
C2588       C  0.90087972  0.75180994  0.70922712    -0.13600
Br2589     Br  0.87744460  0.70084514  0.66245833    -0.05700
Br2590     Br  0.84198642  0.81293318  0.59699369    -0.00100
Br2591     Br  0.98544481  0.75093633  0.66182174     0.00400
Br2592     Br  0.86635487  0.75469193  0.72806461    -0.04000
Br2593     Br  0.82706909  0.70354903  0.61068270     0.00500
Br2594     Br  0.89111609  0.81078923  0.65148413    -0.03300
Br2595     Br  0.93294768  0.75658129  0.61497827    -0.04200
Br2596     Br  0.91774742  0.74307421  0.77562807    -0.00200
C2597       C  0.54193249  0.74385428  0.71067915     0.01200
C2598       C  0.55783303  0.76617526  0.71252308     0.04000
C2599       C  0.58084705  0.76816431  0.69364314    -0.12000
C2600       C  0.58744543  0.74876089  0.67128463     0.23300
C2601       C  0.57067240  0.72752546  0.66736086    -0.12600
C2602       C  0.54826966  0.72488239  0.68712696     0.04700
C2603       C  0.61130532  0.75152624  0.65062958     0.27100
C2604       C  0.61048690  0.76735262  0.62293585    -0.13300
C2605       C  0.63290200  0.77035312  0.60331536     0.05200
C2606       C  0.65678482  0.75748150  0.61125134    -0.09300
C2607       C  0.65752591  0.74203772  0.63972231     0.06100
C2608       C  0.63479743  0.73887332  0.65897212    -0.13600
Br2609     Br  0.57843031  0.70214338  0.63447420    -0.05700
Br2610     Br  0.54880544  0.79452677  0.74022273    -0.00100
Br2611     Br  0.62992343  0.79266119  0.56581304     0.00400
Br2612     Br  0.63538739  0.71652195  0.69650214    -0.04000
Br2613     Br  0.52569358  0.69563148  0.68013440     0.00500
Br2614     Br  0.60391719  0.79741124  0.69848464    -0.03300
Br2615     Br  0.57806906  0.78459892  0.61169989    -0.04200
Br2616     Br  0.68893522  0.72380842  0.65202494    -0.00200
C2617       C  0.75483745  0.66849323  0.61144590     0.01200
C2618       C  0.75612087  0.67259330  0.64580757     0.04000
C2619       C  0.75620248  0.65147894  0.66750298    -0.12000
C2620       C  0.75588344  0.62620894  0.65549172     0.23300
C2621       C  0.75656007  0.62186393  0.62178168    -0.12600
C2622       C  0.75693462  0.64258436  0.59984205     0.04700
C2623       C  0.75504086  0.60359617  0.67768356     0.27100
C2624       C  0.77790354  0.58909553  0.68288592    -0.13300
C2625       C  0.77643003  0.56453662  0.69732959     0.05200
C2626       C  0.75206307  0.55487657  0.70949019    -0.09300
C2627       C  0.72904258  0.56843603  0.70007906     0.06100
C2628       C  0.73063585  0.59318403  0.68629468    -0.13600
Br2629     Br  0.75673933  0.58681686  0.60567556    -0.05700
Br2630     Br  0.75984636  0.70648555  0.66460413    -0.00100
Br2631     Br  0.80729549  0.54317782  0.69382630     0.00400
Br2632     Br  0.69904404  0.61214021  0.67611135    -0.04000
Br2633     Br  0.76271505  0.63360945  0.55443873     0.00500
Br2634     Br  0.75655791  0.65691775  0.71400960    -0.03300
Br2635     Br  0.81108770  0.60230410  0.66731389    -0.04200
Br2636     Br  0.69593760  0.55120315  0.69568570    -0.00200
C2637       C  0.75388798  0.84586111  0.60794182     0.01200
C2638       C  0.74457369  0.87040651  0.59756074     0.04000
C2639       C  0.74462982  0.89136488  0.61915994    -0.12000
C2640       C  0.75371181  0.88844633  0.65128413     0.23300
C2641       C  0.76318557  0.86444125  0.66182189    -0.12600
C2642       C  0.76377666  0.84332797  0.64020973     0.04700
C2643       C  0.75423653  0.91120769  0.67329170     0.27100
C2644       C  0.77461975  0.92925779  0.67056638    -0.13300
C2645       C  0.77364862  0.95243944  0.68821469     0.05200
C2646       C  0.75284092  0.95736982  0.71025667    -0.09300
C2647       C  0.73338642  0.93819062  0.71452235     0.06100
C2648       C  0.73356540  0.91575097  0.69515671    -0.13600
Br2649     Br  0.77561448  0.86080685  0.70605244    -0.05700
Br2650     Br  0.73110475  0.87671515  0.55400978    -0.00100
Br2651     Br  0.80177643  0.97672759  0.68250372     0.00400
Br2652     Br  0.70475948  0.89168135  0.69696608    -0.04000
Br2653     Br  0.78026504  0.81191422  0.65477388     0.00500
Br2654     Br  0.73210700  0.92459090  0.60481451    -0.03300
Br2655     Br  0.80363555  0.92222000  0.64172358    -0.04200
Br2656     Br  0.70599680  0.94219962  0.74613495    -0.00200
C2657       C  0.83243460  0.66858929  0.49307569     0.01200
C2658       C  0.82625697  0.64606529  0.47514290     0.04000
C2659       C  0.84480585  0.62620450  0.47206159    -0.12000
C2660       C  0.87044026  0.62947294  0.48424337     0.23300
C2661       C  0.87739316  0.65265255  0.49970995    -0.12600
C2662       C  0.85840434  0.67179534  0.50510281     0.04700
C2663       C  0.89015065  0.60854948  0.48129193     0.27100
C2664       C  0.89802076  0.59482057  0.50934830    -0.13300
C2665       C  0.91830868  0.57668954  0.50739082     0.05200
C2666       C  0.92955563  0.57086448  0.47702645    -0.09300
C2667       C  0.92069453  0.58335282  0.44863556     0.06100
C2668       C  0.90170472  0.60285776  0.45088936    -0.13600
Br2669     Br  0.91338689  0.65833843  0.51287728    -0.05700
Br2670     Br  0.79360770  0.64299286  0.45138450    -0.00100
Br2671     Br  0.93064855  0.55945251  0.54622181     0.00400
Br2672     Br  0.89215062  0.62218275  0.41251473    -0.04000
Br2673     Br  0.86874432  0.70192218  0.52962557     0.00500
Br2674     Br  0.83502622  0.59437607  0.45106020    -0.03300
Br2675     Br  0.88077150  0.60053710  0.55047464    -0.04200
Br2676     Br  0.93441846  0.57333261  0.40677819    -0.00200
C2677       C  0.56464119  0.56986529  0.50308597     0.01200
C2678       C  0.56311039  0.58769839  0.52896112     0.04000
C2679       C  0.58159741  0.60778825  0.53147443    -0.12000
C2680       C  0.60253909  0.60940431  0.50921479     0.23300
C2681       C  0.60503612  0.59067990  0.48463864    -0.12600
C2682       C  0.58584794  0.57137866  0.48107912     0.04700
C2683       C  0.62104349  0.63157878  0.51037610     0.27100
C2684       C  0.61757530  0.65242124  0.48881906    -0.13300
C2685       C  0.63576361  0.67283243  0.48850077     0.05200
C2686       C  0.65699813  0.67299511  0.51078280    -0.09300
C2687       C  0.65902753  0.65323345  0.53418578     0.06100
C2688       C  0.64186295  0.63205999  0.53305080    -0.13600
Br2689     Br  0.63459075  0.59190816  0.45540798    -0.05700
Br2690     Br  0.53562668  0.58469248  0.56089647    -0.00100
Br2691     Br  0.63170522  0.69992769  0.45675273     0.00400
Br2692     Br  0.64735071  0.60339015  0.56198728    -0.04000
Br2693     Br  0.58783919  0.54797715  0.44472151     0.00500
Br2694     Br  0.57768419  0.63385952  0.56449844    -0.03300
Br2695     Br  0.58779024  0.65283178  0.45962997    -0.04200
Br2696     Br  0.68380642  0.65634162  0.56968426    -0.00200
C2697       C  0.66341093  0.84330344  0.49918730     0.01200
C2698       C  0.65215882  0.84870362  0.46861108     0.04000
C2699       C  0.63207422  0.86694195  0.46615116    -0.12000
C2700       C  0.62439559  0.88095146  0.49394994     0.23300
C2701       C  0.63640621  0.87607888  0.52440085    -0.12600
C2702       C  0.65542923  0.85673614  0.52713794     0.04700
C2703       C  0.60368642  0.90069200  0.49102337     0.27100
C2704       C  0.60859203  0.92346911  0.47347465    -0.13300
C2705       C  0.58830796  0.94122501  0.46847728     0.05200
C2706       C  0.56407857  0.93791849  0.48441534    -0.09300
C2707       C  0.55961773  0.91568582  0.50335138     0.06100
C2708       C  0.57884395  0.89644057  0.50500983    -0.13600
Br2709     Br  0.62701128  0.89589529  0.56235365    -0.05700
Br2710     Br  0.66486478  0.83169932  0.42986200    -0.00100
Br2711     Br  0.59343291  0.96955163  0.43878667     0.00400
Br2712     Br  0.57090774  0.86399646  0.52567221    -0.04000
Br2713     Br  0.66995750  0.84805964  0.56924065     0.00500
Br2714     Br  0.61475244  0.87222438  0.42475231    -0.03300
Br2715     Br  0.64321510  0.93061551  0.45672443    -0.04200
Br2716     Br  0.52772639  0.91186826  0.52810299    -0.00200
C2717       C  0.93219858  0.93697443  0.46531304     0.01200
C2718       C  0.91348953  0.93154985  0.44082569     0.04000
C2719       C  0.89392911  0.91296000  0.44641535    -0.12000
C2720       C  0.89379521  0.89909282  0.47586107     0.23300
C2721       C  0.91238197  0.90447858  0.50028857    -0.12600
C2722       C  0.93123755  0.92368396  0.49527473     0.04700
C2723       C  0.87424886  0.87862034  0.48137427     0.27100
C2724       C  0.85043761  0.88446044  0.49667522    -0.13300
C2725       C  0.83280618  0.86472393  0.50456154     0.05200
C2726       C  0.83777931  0.83912032  0.49443872    -0.09300
C2727       C  0.86234678  0.83329761  0.47976975     0.06100
C2728       C  0.88049539  0.85308302  0.47365241    -0.13600
Br2729     Br  0.91142209  0.88584724  0.54098725    -0.05700
Br2730     Br  0.91451836  0.94967927  0.39994881    -0.00100
Br2731     Br  0.80356982  0.87303260  0.53252141     0.00400
Br2732     Br  0.91426158  0.84550335  0.45461979    -0.04000
Br2733     Br  0.95474537  0.93284466  0.53034769     0.00500
Br2734     Br  0.86661670  0.90698550  0.41461285    -0.03300
Br2735     Br  0.84211511  0.91974253  0.50682158    -0.04200
Br2736     Br  0.87231222  0.79872932  0.46769827    -0.00200
C2737       C  0.65361472  0.75241962  0.40031786     0.01200
C2738       C  0.62918088  0.76403704  0.40845836     0.04000
C2739       C  0.60747715  0.76178785  0.38737588    -0.12000
C2740       C  0.60919848  0.74689689  0.35897218     0.23300
C2741       C  0.63283030  0.73430873  0.35142036    -0.12600
C2742       C  0.65503609  0.73717725  0.37171674     0.04700
C2743       C  0.58610981  0.74472039  0.33685343     0.27100
C2744       C  0.56627298  0.72652089  0.34305538    -0.13300
C2745       C  0.54441747  0.72464967  0.32203620     0.05200
C2746       C  0.54180571  0.74164322  0.29525256    -0.09300
C2747       C  0.56301931  0.75798410  0.28745423     0.06100
C2748       C  0.58455361  0.76026070  0.30885289    -0.13600
Br2749     Br  0.63433171  0.71255452  0.31338609    -0.05700
Br2750     Br  0.62384575  0.78242698  0.44888301    -0.00100
Br2751     Br  0.51951825  0.69707718  0.32836679     0.00400
Br2752     Br  0.61251752  0.78415288  0.29947950    -0.04000
Br2753     Br  0.68629084  0.71794624  0.36129490     0.00500
Br2754     Br  0.57497587  0.77916021  0.39729619    -0.03300
Br2755     Br  0.56957991  0.70366698  0.37989231    -0.04200
Br2756     Br  0.56524948  0.77342633  0.24486228    -0.00200
C2757       C  0.94843521  0.74967558  0.29329374     0.01200
C2758       C  0.95142718  0.75117707  0.32760834     0.04000
C2759       C  0.92914192  0.75285399  0.34796996    -0.12000
C2760       C  0.90378952  0.75418155  0.33431276     0.23300
C2761       C  0.90096560  0.75562723  0.30029202    -0.12600
C2762       C  0.92310695  0.75365475  0.27996301     0.04700
C2763       C  0.87998682  0.75420878  0.35545405     0.27100
C2764       C  0.86823459  0.73075857  0.36470895    -0.13300
C2765       C  0.84534686  0.73068966  0.38391986     0.05200
C2766       C  0.83384006  0.75405006  0.39359203    -0.09300
C2767       C  0.84531393  0.77748561  0.38395750     0.06100
C2768       C  0.86840062  0.77757927  0.36513455    -0.13600
Br2769     Br  0.86646859  0.76041989  0.28169734    -0.05700
Br2770     Br  0.98558365  0.75219383  0.34743699    -0.00100
Br2771     Br  0.83004769  0.69861756  0.39785001     0.00400
Br2772     Br  0.88448503  0.80970887  0.35305003    -0.04000
Br2773     Br  0.91870134  0.75910033  0.23398996     0.00500
Br2774     Br  0.93308947  0.75328637  0.39475814    -0.03300
Br2775     Br  0.88376469  0.69871163  0.35136126    -0.04200
Br2776     Br  0.82960647  0.80949338  0.39726229    -0.00200
C2777       C  0.75114550  0.95427950  0.29298637     0.01200
C2778       C  0.76662004  0.94949927  0.32125347     0.04000
C2779       C  0.76452074  0.92607357  0.33817270    -0.12000
C2780       C  0.74610989  0.90755414  0.32827185     0.23300
C2781       C  0.73211315  0.91111127  0.29909464    -0.12600
C2782       C  0.73615651  0.93339537  0.28014011     0.04700
C2783       C  0.74190906  0.88445332  0.34896683     0.27100
C2784       C  0.75382914  0.86093830  0.34102384    -0.13300
C2785       C  0.75295690  0.84014464  0.36304464     0.05200
C2786       C  0.74170194  0.84331300  0.39443521    -0.09300
C2787       C  0.72974558  0.86729780  0.40211941     0.06100
C2788       C  0.72878720  0.88711717  0.37880606    -0.13600
Br2789     Br  0.70663215  0.88565162  0.28578767    -0.05700
Br2790     Br  0.79267783  0.97372536  0.33605045    -0.00100
Br2791     Br  0.76939476  0.80831507  0.35017808     0.00400
Br2792     Br  0.71041668  0.91880006  0.38801746    -0.04000
Br2793     Br  0.72308523  0.93229339  0.23597856     0.00500
Br2794     Br  0.78679346  0.91908621  0.37543438    -0.03300
Br2795     Br  0.77306378  0.85794980  0.30073460    -0.04200
Br2796     Br  0.71561417  0.87474477  0.44474857    -0.00200
C2797       C  0.74426764  0.55196544  0.30486245     0.01200
C2798       C  0.76562011  0.56274992  0.32250334     0.04000
C2799       C  0.76288612  0.58629182  0.33920569    -0.12000
C2800       C  0.73867886  0.59924578  0.33918617     0.23300
C2801       C  0.71674577  0.58739794  0.32481561    -0.12600
C2802       C  0.71907611  0.56275216  0.31103929     0.04700
C2803       C  0.73568819  0.62337968  0.35832930     0.27100
C2804       C  0.72331869  0.62275367  0.38896839    -0.13300
C2805       C  0.72261965  0.64492092  0.40846360     0.05200
C2806       C  0.73621841  0.66745639  0.39875156    -0.09300
C2807       C  0.74740452  0.66840963  0.36719841     0.06100
C2808       C  0.74648358  0.64660061  0.34687570    -0.13600
Br2809     Br  0.68320970  0.60464196  0.32482868    -0.05700
Br2810     Br  0.79695005  0.54351209  0.33037213    -0.00100
Br2811     Br  0.70149822  0.64420800  0.44753346     0.00400
Br2812     Br  0.76029392  0.64828209  0.30322960    -0.04000
Br2813     Br  0.68786934  0.54161251  0.31095901     0.00500
Br2814     Br  0.79206362  0.60036393  0.36367705    -0.03300
Br2815     Br  0.70799199  0.59118141  0.40497486    -0.04200
Br2816     Br  0.76529522  0.69874968  0.35159533    -0.00200
loop_ 
_geom_bond_atom_site_label_1 
_geom_bond_atom_site_label_2 
_geom_bond_distance 
_geom_bond_site_symmetry_2 
_ccdc_geom_bond_type 
O1           C12   1.293       .  A
O1          Eu37   2.475       .  S
O2           C13   1.295       .  A
O2          Eu36   2.493       .  S
O3           C14   1.291       .  A
O3           Eu9   2.464       .  S
O4           C15   1.293       .  A
O4           Eu9   2.470       .  S
O5           C15   1.287       .  A
O5          Eu39   2.443       .  S
O6           C14   1.287       .  A
O6          Eu38   2.446       .  S
O7           C13   1.280       .  A
O7           Eu9   2.421       .  S
O8           C12   1.288       .  A
O8           Eu9   2.439       .  S
Eu9          O19   2.339       .  S
Eu9          O11   2.346       .  S
Eu9          O10   2.349       .  S
Eu9          O17   2.352       .  S
O10         Eu39   2.347       .  S
O10         Eu36   2.356       .  S
O11         Eu37   2.364       .  S
O11         Eu38   2.350       .  S
C12         C694   1.491       .  S
C13         C505   1.513       .  S
C14         C545   1.494       .  S
C15         C574   1.480       .  S
H16          O17   0.966       .  S
O17         Eu38   2.349       .  S
O17         Eu36   2.376       .  S
H18          O19   0.964       .  S
O19         Eu37   2.356       .  S
O19         Eu39   2.333       .  S
O20          C43   1.295       .  A
O20         Eu36   2.482       .  S
O21          C44   1.295       .  A
O21         Eu37   2.486       .  S
O22          C45   1.292       .  A
O22         Eu38   2.465       .  S
O23          C46   1.284       .  A
O23         Eu39   2.424       .  S
O24          C47   1.285       .  A
O24         Eu39   2.434       .  S
O25          C48   1.288       .  A
O25         Eu38   2.445       .  S
O26          C49   1.289       .  A
O26         Eu40   2.454       .  S
O27          C50   1.287       .  A
O27         Eu40   2.443       .  S
O28          C49   1.285       .  A
O28         Eu38   2.441       .  S
O29          C50   1.287       .  A
O29         Eu39   2.439       .  S
O30          C45   1.294       .  A
O30         Eu36   2.476       .  S
O31          C48   1.298       .  A
O31         Eu37   2.496       .  S
O32          C47   1.296       .  A
O32         Eu37   2.490       .  S
O33          C46   1.301       .  A
O33         Eu36   2.517       .  S
O34          C43   1.285       .  A
O34         Eu40   2.440       .  S
O35          C44   1.288       .  A
O35         Eu40   2.447       .  S
Eu36         O54   2.361       .  S
Eu36         O42   2.366       .  S
Eu37         O41   2.348       .  S
Eu37         O52   2.362       .  S
Eu38         O52   2.353       .  S
Eu38         O42   2.343       .  S
Eu39         O41   2.345       .  S
Eu39         O54   2.351       .  S
Eu40         O41   2.348       .  S
Eu40         O52   2.338       .  S
Eu40         O54   2.362       .  S
Eu40         O42   2.335       .  S
C43         C525   1.500       .  S
C44         C674   1.500       .  S
C45         C465   1.479       .  S
C46         C494   1.502       .  S
C47         C625   1.498       .  S
C48         C654   1.478       .  S
C49         C614   1.491       .  S
C50         C585   1.458       .  S
H51          O52   0.967       .  S
H53          O54   0.965       .  S
N55          C60   1.354       .  A
N55         C763   1.351   1_545  A
N55          H87   1.040       .  S
N56          C64   1.349       .  A
N56        C1471   1.347       .  A
N57          C62   1.349       .  A
N57         C765   1.354   1_545  A
N57          H88   1.040       .  S
N58          C66   1.351       .  A
N58        C1473   1.354       .  A
C59         N759   1.351       .  A
C59          C67   1.389       .  A
C59          C75   1.417       .  A
C60          C76   1.415       .  A
C60          C68   1.386       .  A
C61         N761   1.354       .  A
C61          C69   1.386       .  A
C61          C78   1.411       .  A
C62          C77   1.413       .  A
C62          C70   1.388       .  A
C63        N1464   1.346   1_455  A
C63          C75   1.411       .  A
C63          C71   1.388       .  A
C64          C78   1.406       .  A
C64          C72   1.384       .  A
C65        N1466   1.354   1_455  A
C65          C73   1.386       .  A
C65          C76   1.417       .  A
C66          C74   1.386       .  A
C66          C77   1.415       .  A
C67         C772   1.379       .  A
C67          H79   1.082       .  S
C68         C771   1.379   1_545  A
C68          H80   1.082       .  S
C69         C774   1.373       .  A
C69          H81   1.082       .  S
C70         C773   1.373   1_545  A
C70          H82   1.082       .  S
C71        C1480   1.377   1_455  A
C71          H83   1.082       .  S
C72        C1479   1.377       .  A
C72          H84   1.082       .  S
C73        C1482   1.375   1_455  A
C73          H85   1.082       .  S
C74        C1481   1.375       .  A
C74          H86   1.082       .  S
C75         C594   1.486       .  S
C76         C565   1.502       .  S
C77         C554   1.484       .  S
C78         C605   1.488       .  S
O89         C100   1.291       .  A
O89        Eu125   2.468       .  S
O90         C101   1.296       .  A
O90        Eu124   2.487       .  S
O91         C102   1.285       .  A
O91       Eu1505   2.430       .  S
O92         C103   1.282       .  A
O92         Eu97   2.417       .  S
O93         C103   1.296       .  A
O93        Eu127   2.484       .  S
O94         C102   1.290       .  A
O94        Eu126   2.465       .  S
O95         C101   1.294       .  A
O95         Eu97   2.474       .  S
O96         C100   1.297       .  A
O96         Eu97   2.500   1_556  S
Eu97       O1499   2.431       .  S
Eu97        O107   2.340   1_554  S
Eu97         O98   2.368       .  S
Eu97       O1507   2.342   1_554  S
Eu97       O1513   2.359       .  S
O98        Eu127   2.349       .  S
O98        Eu124   2.371       .  S
O99        Eu126   2.360   1_556  S
O99       Eu1505   2.341   1_556  S
O99       Eu1533   2.353       .  S
C100        C445   1.517       .  S
C101        C265   1.486       .  S
C102        C305   1.493       .  S
C103        C325   1.475   1_554  S
H104        O105   0.965       .  S
O105       Eu126   2.352       .  S
O105      Eu1505   2.359       .  S
O105      Eu1532   2.366       .  S
H106        O107   0.966       .  S
O107       Eu125   2.362       .  S
O107       Eu127   2.357   1_556  S
O108        C131   1.294       .  A
O108       Eu828   2.488   1_545  S
O109        C132   1.293       .  A
O109       Eu829   2.471   1_545  S
O110        C133   1.289       .  A
O110       Eu126   2.443       .  S
O111        C134   1.296       .  A
O111       Eu127   2.483       .  S
O112        C839   1.285       .  A
O112       Eu127   2.436   1_556  S
O113        C840   1.283       .  A
O113       Eu126   2.411   1_556  S
O114        C137   1.282       .  A
O114      Eu1536   2.420   1_455  S
O115        C138   1.285       .  A
O115       Eu128   2.431       .  S
O116        C137   1.296   1_554  A
O116       Eu830   2.494   1_545  S
O117        C138   1.292   1_554  A
O117       Eu831   2.464   1_545  S
O118        C133   1.295       .  A
O118      Eu1532   2.484       .  S
O119        C136   1.305       .  A
O119      Eu2237   2.537       .  S
O120        C135   1.297       .  A
O120       Eu829   2.500       .  S
O121        C134   1.296       .  A
O121       Eu124   2.492       .  S
O122        C131   1.284       .  A
O122       Eu128   2.437   1_554  S
O123        C132   1.290       .  A
O123       Eu128   2.452       .  S
Eu124       O812   2.488       .  S
Eu124      O1526   2.484       .  S
Eu124      O1513   2.366       .  S
Eu124       O846   2.361       .  S
Eu124      O2242   2.360       .  S
Eu125       O813   2.470       .  S
Eu125      O2231   2.537       .  S
Eu125       O824   2.500       .  S
Eu125      O1507   2.353       .  S
Eu125       O833   2.365       .  S
Eu125      O2252   2.363       .  S
Eu126       O820   2.494       .  S
Eu126       O844   2.357   1_554  S
Eu126       O834   2.336       .  S
Eu127       O821   2.463       .  S
Eu127       O833   2.358   1_554  S
Eu127       O846   2.344       .  S
Eu128      O1522   2.419       .  S
Eu128       O129   2.330       .  S
Eu128       O142   2.350   1_556  S
Eu128      O1548   2.350       .  S
Eu128      O1538   2.354   1_556  S
O129       Eu829   2.365   1_545  S
O129       Eu831   2.358   1_546  S
O130      Eu2236   2.360   1_545  S
O130       Eu830   2.335   1_545  S
O130      Eu1536   2.354   1_454  S
C131        C294   1.512       .  S
C132        C425   1.483       .  S
C133        C225   1.485       .  S
C134        C254   1.503       .  S
C135        O816   1.285       .  A
C135       C1098   1.512       .  S
C136        O817   1.284       .  A
C136       C1109   1.493       .  S
C137        C365   1.472       .  S
C138        C345   1.477   1_556  S
H139        O140   0.967       .  S
O140      Eu2237   2.362   1_545  S
O140       Eu830   2.357   1_546  S
O140      Eu1536   2.350   1_455  S
H141        O142   0.966       .  S
O142       Eu828   2.361   1_545  S
O142       Eu831   2.345   1_545  S
N143        C148   1.351       .  A
N143        C147   1.353       .  A
N143        H175   1.041       .  S
N144        C151   1.347       .  A
N144        C152   1.348       .  A
N145        C150   1.350       .  A
N145        C149   1.351       .  A
N145        H176   1.042       .  S
N146        C153   1.347       .  A
N146        C154   1.349       .  A
C147        C155   1.387   1_556  A
C147        C163   1.415       .  A
C148        C164   1.416       .  A
C148        C156   1.388   1_556  A
C149        C157   1.388   1_556  A
C149        C166   1.415       .  A
C150        C165   1.411       .  A
C150        C158   1.386   1_556  A
C151        C163   1.406       .  A
C151        C159   1.385       .  A
C152        C166   1.412       .  A
C152        C160   1.388       .  A
C153        C161   1.388       .  A
C153        C164   1.411       .  A
C154        C162   1.386       .  A
C154        C165   1.409       .  A
C155        C156   1.381       .  A
C155        H167   1.082       .  S
C156        H168   1.082       .  S
C157        C158   1.380       .  A
C157        H169   1.082       .  S
C158        H170   1.082       .  S
C159        C160   1.376       .  A
C159        H171   1.082       .  S
C160        H172   1.082       .  S
C161        C162   1.377       .  A
C161        H173   1.083       .  S
C162        H174   1.082       .  S
C163        C354   1.488       .  S
C164        C334   1.486       .  S
C165        C314   1.486       .  S
C166        C374   1.496       .  S
C177        C183   1.533       .  S
C177        C181   1.552       .  S
C177       C1586   1.527       .  S
C177        C285   1.556       .  S
C178       C1585   1.527   1_455  S
C178        H185   1.086       .  S
C178        C179   1.359       .  D
C179       C1588   1.565   1_455  S
C179        C634   1.493       .  S
C180        C184   1.560       .  S
C180        C182   1.542       .  S
C180       C1587   1.565       .  S
C180        H186   1.095       .  S
C181        H187   1.082       .  S
C181        C182   1.370       .  D
C182        C645   1.511       .  S
C183        H188   1.084       .  S
C183        C184   1.375       .  D
C184        C274   1.533       .  S
C189        C190   1.556       .  S
C189        C193   1.530       .  S
C189        C899   1.540       .  S
C189        C685   1.560       .  S
C190        H197   1.085       .  S
C190        C895   1.382       .  D
C191        C192   1.550       .  S
C191        C894   1.382       .  D
C191        C245   1.529       .  S
C192        C196   1.544       .  S
C192        C194   1.558       .  S
C192        H198   1.094       .  S
C193        H199   1.085       .  S
C193        C898   1.354       .  D
C194        C897   1.353       .  D
C194        C234   1.490       .  S
C195        C893   1.540       .  S
C195        H200   1.086       .  S
C195        C196   1.375       .  D
C196        C665   1.517       .  S
C201        C202   1.543       .  S
C201        C207   1.549       .  S
C201       C1613   1.531       .  S
C201        C434   1.561       .  S
C202        H209   1.085       .  S
C202        C203   1.367       .  D
C203        C204   1.554       .  S
C203        C474   1.509       .  S
C204        C208   1.552       .  S
C204       C1614   1.554       .  S
C204        H210   1.109       .  S
C205       C1609   1.531   1_455  S
C205        H211   1.086       .  S
C205        C206   1.366       .  D
C206       C1612   1.554   1_455  S
C206        C485   1.507       .  S
C207        H212   1.084       .  S
C207        C208   1.374       .  D
C208        C454   1.508       .  S
C213        C214   1.550       .  S
C213        C217   1.534       .  S
C213        C923   1.536       .  S
C213        C514   1.560       .  S
C214        H221   1.083       .  S
C214        C919   1.375       .  D
C215        C216   1.550       .  S
C215        C918   1.375       .  D
C215        C414   1.512       .  S
C216        C220   1.553       .  S
C216        C218   1.553       .  S
C216        H222   1.109       .  S
C217        H223   1.084       .  S
C217        C922   1.363       .  D
C218        C921   1.362       .  D
C218        C385   1.502       .  S
C219        C917   1.535       .  S
C219        H224   1.086       .  S
C219        C220   1.369       .  D
C220        C534   1.507       .  S
C225        C226   1.416       .  A
C225        C934   1.412       .  A
C226        C227   1.405       .  A
C226       Br238   1.929       .  S
C227        C228   1.405       .  A
C227       Br242   1.931       .  S
C228        C231   1.487       .  S
C228        C933   1.411       .  A
C229        C230   1.411       .  A
C229        C932   1.411   1_545  A
C229       Br237   1.929       .  S
C230        C929   1.412   1_545  A
C230       Br241   1.926       .  S
C231        C232   1.406       .  A
C231        C236   1.409       .  A
C232        C233   1.407       .  A
C232       Br243   1.930       .  S
C233        C234   1.415       .  A
C233       Br239   1.931       .  S
C234        C235   1.416       .  A
C235        C236   1.411       .  A
C235       Br948   1.932       .  S
C236       Br240   1.930       .  S
Br244       C939   1.932       .  S
C245        C246   1.430       .  A
C245        C954   1.424       .  A
C246        C247   1.419       .  A
C246       Br258   1.928       .  S
C247        C248   1.410       .  A
C247       Br262   1.937       .  S
C248        C251   1.501       .  S
C248        C953   1.405       .  A
C249        C250   1.410       .  A
C249        C952   1.404   1_545  A
C249       Br257   1.937       .  S
C250        C949   1.424       .  A
C250       Br261   1.916       .  S
C251        C252   1.414       .  A
C251        C960   1.409       .  A
C252        C253   1.413       .  A
C252       Br263   1.931       .  S
C253        C254   1.415       .  A
C253       Br259   1.925       .  S
C254        C959   1.418       .  A
C255        C256   1.411       .  A
C255        C958   1.418   1_545  A
C255       Br264   1.922       .  S
C256        C955   1.409   1_545  A
C256       Br260   1.934       .  S
C265        C266   1.410       .  A
C265       C1678   1.411       .  A
C266        C267   1.409       .  A
C266       Br278   1.928       .  S
C267        C268   1.413       .  A
C267       Br282   1.932       .  S
C268        C271   1.498       .  S
C268       C1677   1.414       .  A
C269        C270   1.414       .  A
C269       C1676   1.414       .  A
C269       Br277   1.930       .  S
C270       C1673   1.411       .  A
C270       Br281   1.927       .  S
C271        C276   1.403       .  A
C271       C1680   1.407       .  A
C272        C273   1.421       .  A
C272       C1679   1.408       .  A
C272       Br283   1.934       .  S
C273       C1682   1.435   1_455  A
C273       Br279   1.928       .  S
C274        C275   1.430       .  A
C274       C1681   1.435       .  A
C275        C276   1.404       .  A
C275       Br284   1.938       .  S
C276       Br280   1.935       .  S
C285        C290   1.429       .  A
C285       C1694   1.430       .  A
C286        C287   1.410       .  A
C286       C1693   1.430   1_455  A
C286       Br298   1.939       .  S
C287       C1696   1.405   1_455  A
C287       Br302   1.934       .  S
C288        C291   1.490       .  S
C288        C289   1.404       .  A
C288       C1695   1.405       .  A
C289        C290   1.413       .  A
C289       Br297   1.935       .  S
C290       Br301   1.930       .  S
C291        C292   1.402       .  A
C291       C1704   1.404       .  A
C292        C293   1.407       .  A
C292       Br303   1.936       .  S
C293        C294   1.433       .  A
C293       Br299   1.941       .  S
C294       C1703   1.429       .  A
C295        C296   1.413       .  A
C295       C1702   1.429   1_655  A
C295       Br304   1.936       .  S
C296       C1699   1.404       .  A
C296       Br300   1.932       .  S
C305        C306   1.425       .  A
C305        C310   1.424   1_554  A
C306        C307   1.403       .  A
C306       Br318   1.937       .  S
C307        C308   1.402   1_554  A
C307       Br322   1.936       .  S
C308        C311   1.479       .  S
C308        C309   1.405       .  A
C309        C310   1.409       .  A
C309       Br317   1.932       .  S
C310       Br321   1.935       .  S
C311        C312   1.408   1_556  A
C311        C316   1.408       .  A
C312        C313   1.405       .  A
C312       Br323   1.931       .  S
C313        C314   1.410   1_554  A
C313       Br319   1.929       .  S
C314        C315   1.411       .  A
C315        C316   1.405       .  A
C315       Br324   1.929       .  S
C316       Br320   1.932       .  S
C325        C326   1.415   1_556  A
C325        C330   1.407       .  A
C326        C327   1.404       .  A
C326       Br338   1.927       .  S
C327        C328   1.406   1_554  A
C327       Br342   1.932       .  S
C328        C331   1.473       .  S
C328        C329   1.407       .  A
C329        C330   1.400       .  A
C329       Br337   1.931       .  S
C330       Br341   1.927       .  S
C331        C332   1.407       .  A
C331        C336   1.407   1_556  A
C332        C333   1.404       .  A
C332       Br343   1.932       .  S
C333        C334   1.412       .  A
C333       Br339   1.929       .  S
C334        C335   1.413   1_556  A
C335        C336   1.403       .  A
C335       Br344   1.931       .  S
C336       Br340   1.933       .  S
C345        C346   1.410   1_554  A
C345        C350   1.415       .  A
C346        C347   1.404       .  A
C346       Br358   1.926       .  S
C347        C348   1.409   1_556  A
C347       Br362   1.930       .  S
C348        C351   1.481   1_554  S
C348        C349   1.408       .  A
C349        C350   1.405       .  A
C349       Br357   1.932       .  S
C350       Br361   1.931       .  S
C351        C352   1.410       .  A
C351        C356   1.409   1_556  A
C352        C353   1.404       .  A
C352       Br363   1.933       .  S
C353        C354   1.408       .  A
C353       Br359   1.928       .  S
C354        C355   1.413   1_556  A
C355        C356   1.408       .  A
C355       Br364   1.928       .  S
C356       Br360   1.931       .  S
C365        C366   1.406       .  A
C365        C370   1.405   1_556  A
C366        C367   1.403       .  A
C366       Br378   1.922       .  S
C367        C368   1.412       .  A
C367       Br382   1.932       .  S
C368        C371   1.490       .  S
C368        C369   1.418   1_556  A
C369        C370   1.408       .  A
C369       Br377   1.931       .  S
C370       Br381   1.930       .  S
C371        C372   1.409   1_556  A
C371        C376   1.414       .  A
C372        C373   1.402       .  A
C372       Br383   1.932       .  S
C373        C374   1.414   1_554  A
C373       Br379   1.930       .  S
C374        C375   1.414       .  A
C375        C376   1.408       .  A
C375       Br384   1.933       .  S
C376       Br380   1.931       .  S
C385        C386   1.416       .  A
C385       C1094   1.423       .  A
C386        C387   1.409       .  A
C386       Br398   1.922       .  S
C387        C388   1.405       .  A
C387       Br402   1.932       .  S
C388        C391   1.488       .  S
C388       C1093   1.407       .  A
C389        C390   1.410       .  A
C389       C1092   1.407   1_545  A
C389       Br397   1.932       .  S
C390       C1089   1.424       .  A
C390       Br401   1.937       .  S
C391        C396   1.405       .  A
C391       C1096   1.400       .  A
C392        C393   1.408       .  A
C392       C1095   1.401       .  A
C392       Br403   1.938       .  S
C393       C1098   1.436       .  A
C393       Br399   1.943       .  S
C394        C839   1.512       .  S
C394        C395   1.428       .  A
C394       C1097   1.436       .  A
C395        C396   1.414       .  A
C395       Br404   1.935       .  S
C396       Br400   1.933       .  S
C405        C840   1.493       .  S
C405        C410   1.412       .  A
C405       C1110   1.418       .  A
C406        C407   1.408       .  A
C406       C1109   1.418   1_545  A
C406       Br418   1.925       .  S
C407       C1112   1.407   1_545  A
C407       Br422   1.934       .  S
C408        C411   1.495       .  S
C408        C409   1.412       .  A
C408       C1111   1.407       .  A
C409        C410   1.415       .  A
C409       Br417   1.928       .  S
C410       Br421   1.925       .  S
C411        C416   1.410       .  A
C411       C1116   1.404       .  A
C412        C413   1.407       .  A
C412       C1115   1.404       .  A
C412       Br423   1.933   1_565  S
C413       C1118   1.419       .  A
C413       Br419   1.923   1_565  S
C414        C415   1.421       .  A
C414       C1117   1.419       .  A
C415        C416   1.417       .  A
C415       Br424   1.925       .  S
C416       Br420   1.931       .  S
C425        C426   1.413       .  A
C425       C1838   1.412       .  A
C426        C427   1.409       .  A
C426       Br438   1.930       .  S
C427        C428   1.409       .  A
C427       Br442   1.929       .  S
C428        C431   1.491       .  S
C428       C1837   1.411       .  A
C429        C430   1.410       .  A
C429       C1836   1.411   1_455  A
C429       Br437   1.929       .  S
C430       C1833   1.412   1_455  A
C430       Br441   1.932       .  S
C431        C432   1.403       .  A
C431       C1844   1.403       .  A
C432        C433   1.413       .  A
C432       Br443   1.933       .  S
C433        C434   1.432       .  A
C433       Br439   1.933       .  S
C434       C1843   1.428       .  A
C435        C436   1.412       .  A
C435       C1842   1.428   1_455  A
C435       Br444   1.922       .  S
C436       C1839   1.403   1_455  A
C436       Br440   1.936       .  S
C445        C450   1.427       .  A
C445       C1854   1.430       .  A
C446        C447   1.416       .  A
C446       C1853   1.430   1_455  A
C446       Br458   1.934       .  S
C447       C1856   1.406   1_455  A
C447       Br462   1.934       .  S
C448        C451   1.495       .  S
C448        C449   1.404       .  A
C448       C1855   1.406       .  A
C449        C450   1.412       .  A
C449       Br457   1.935       .  S
C450       Br461   1.927       .  S
C451        C452   1.407       .  A
C451       C1864   1.407       .  A
C452        C453   1.413       .  A
C452       Br463   1.932       .  S
C453        C454   1.418       .  A
C453       Br459   1.919       .  S
C454       C1863   1.419       .  A
C455        C456   1.410       .  A
C455       C1862   1.419   1_455  A
C455       Br464   1.926       .  S
C456       C1859   1.407   1_455  A
C456       Br460   1.933       .  S
C465        C466   1.411       .  A
C465        C470   1.407       .  A
C466        C467   1.414       .  A
C466       Br478   1.930       .  S
C467        C468   1.413       .  A
C467       Br482   1.929       .  S
C468        C471   1.495       .  S
C468        C469   1.412       .  A
C469        C470   1.408       .  A
C469       Br477   1.928       .  S
C470       Br481   1.932       .  S
C471        C472   1.408       .  A
C471        C476   1.408       .  A
C472        C473   1.412       .  A
C472       Br483   1.932       .  S
C473        C474   1.416       .  A
C473       Br479   1.922       .  S
C474        C475   1.423       .  A
C475        C476   1.414       .  A
C475       Br484   1.935       .  S
C476       Br480   1.931       .  S
C485        C486   1.418       .  A
C485        C490   1.421       .  A
C486        C487   1.412       .  A
C486       Br498   1.921       .  S
C487        C488   1.407       .  A
C487       Br502   1.933       .  S
C488        C491   1.492       .  S
C488        C489   1.406       .  A
C489        C490   1.411       .  A
C489       Br497   1.932       .  S
C490       Br501   1.930       .  S
C491        C492   1.404       .  A
C491        C496   1.409       .  A
C492        C493   1.408       .  A
C492       Br503   1.936       .  S
C493        C494   1.426       .  A
C493       Br499   1.932       .  S
C494        C495   1.419       .  A
C495        C496   1.415       .  A
C495       Br504   1.930       .  S
C496       Br500   1.930       .  S
C505        C506   1.428       .  A
C505        C510   1.436       .  A
C506        C507   1.414       .  A
C506       Br518   1.936       .  S
C507        C508   1.406       .  A
C507       Br522   1.930       .  S
C508        C511   1.489       .  S
C508        C509   1.403       .  A
C509        C510   1.405       .  A
C509       Br517   1.942       .  S
C510       Br521   1.946       .  S
C511        C512   1.405       .  A
C511        C516   1.403       .  A
C512        C513   1.412       .  A
C512       Br523   1.936       .  S
C513        C514   1.432       .  A
C513       Br519   1.933       .  S
C514        C515   1.424       .  A
C515        C516   1.410       .  A
C515       Br524   1.919       .  S
C516       Br520   1.935       .  S
C525        C526   1.429       .  A
C525        C530   1.422       .  A
C526        C527   1.406       .  A
C526       Br538   1.941       .  S
C527        C528   1.404       .  A
C527       Br542   1.936       .  S
C528        C531   1.490       .  S
C528        C529   1.408       .  A
C529        C530   1.413       .  A
C529       Br537   1.930       .  S
C530       Br541   1.934       .  S
C531        C532   1.405       .  A
C531        C536   1.407       .  A
C532        C533   1.409       .  A
C532       Br543   1.933       .  S
C533        C534   1.420       .  A
C533       Br539   1.926       .  S
C534        C535   1.418       .  A
C535        C536   1.413       .  A
C535       Br544   1.921       .  S
C536       Br540   1.932       .  S
C545        C546   1.420       .  A
C545        C550   1.422       .  A
C546        C547   1.409       .  A
C546       Br558   1.933       .  S
C547        C548   1.408       .  A
C547       Br562   1.933       .  S
C548        C551   1.489       .  S
C548        C549   1.408       .  A
C549        C550   1.408       .  A
C549       Br557   1.934       .  S
C550       Br561   1.937       .  S
C551        C552   1.412       .  A
C551        C556   1.413       .  A
C552        C553   1.404       .  A
C552       Br563   1.930       .  S
C553        C554   1.407       .  A
C553       Br559   1.932       .  S
C554        C555   1.408       .  A
C555        C556   1.408       .  A
C555       Br564   1.929       .  S
C556       Br560   1.930       .  S
C565        C566   1.415       .  A
C565        C570   1.414       .  A
C566        C567   1.411       .  A
C566       Br578   1.929       .  S
C567        C568   1.410       .  A
C567       Br582   1.930       .  S
C568        C571   1.491       .  S
C568        C569   1.410       .  A
C569        C570   1.409       .  A
C569       Br577   1.931       .  S
C570       Br581   1.930       .  S
C571        C572   1.411       .  A
C571        C576   1.410       .  A
C572        C573   1.409       .  A
C572       Br583   1.932       .  S
C573        C574   1.414       .  A
C573       Br579   1.930       .  S
C574        C575   1.409       .  A
C575        C576   1.407       .  A
C575       Br584   1.932       .  S
C576       Br580   1.927       .  S
C585        C586   1.407       .  A
C585        C590   1.406       .  A
C586        C587   1.401       .  A
C586       Br598   1.935       .  S
C587        C588   1.411       .  A
C587       Br602   1.932       .  S
C588        C591   1.479       .  S
C588        C589   1.413       .  A
C589        C590   1.403       .  A
C589       Br597   1.931       .  S
C590       Br601   1.931       .  S
C591        C592   1.410       .  A
C591        C596   1.410       .  A
C592        C593   1.402       .  A
C592       Br603   1.932       .  S
C593        C594   1.410       .  A
C593       Br599   1.931       .  S
C594        C595   1.413       .  A
C595        C596   1.404       .  A
C595       Br604   1.931       .  S
C596       Br600   1.933       .  S
C605        C606   1.412       .  A
C605        C610   1.412       .  A
C606        C607   1.408       .  A
C606       Br618   1.926       .  S
C607        C608   1.407       .  A
C607       Br622   1.930       .  S
C608        C611   1.476       .  S
C608        C609   1.406       .  A
C609        C610   1.402       .  A
C609       Br617   1.932       .  S
C610       Br621   1.930       .  S
C611        C612   1.403       .  A
C611        C616   1.405       .  A
C612        C613   1.403       .  A
C612       Br623   1.932       .  S
C613        C614   1.419       .  A
C613       Br619   1.934       .  S
C614        C615   1.425       .  A
C615        C616   1.407       .  A
C615       Br624   1.936       .  S
C616       Br620   1.934       .  S
C625        C626   1.427       .  A
C625        C630   1.420       .  A
C626        C627   1.408       .  A
C626       Br638   1.937       .  S
C627        C628   1.404       .  A
C627       Br642   1.934       .  S
C628        C631   1.489       .  S
C628        C629   1.408       .  A
C629        C630   1.411       .  A
C629       Br637   1.931       .  S
C630       Br641   1.933       .  S
C631        C632   1.409       .  A
C631        C636   1.407       .  A
C632        C633   1.410       .  A
C632       Br643   1.931       .  S
C633        C634   1.417       .  A
C633       Br639   1.934       .  S
C634        C635   1.413       .  A
C635        C636   1.409       .  A
C635       Br644   1.927       .  S
C636       Br640   1.931       .  S
C645        C646   1.418       .  A
C645        C650   1.416       .  A
C646        C647   1.416       .  A
C646       Br658   1.921       .  S
C647        C648   1.409       .  A
C647       Br662   1.930       .  S
C648        C651   1.495       .  S
C648        C649   1.405       .  A
C649        C650   1.410       .  A
C649       Br657   1.931       .  S
C650       Br661   1.920       .  S
C651        C652   1.412       .  A
C651        C656   1.412       .  A
C652        C653   1.411       .  A
C652       Br663   1.928       .  S
C653        C654   1.409       .  A
C653       Br659   1.930       .  S
C654        C655   1.410       .  A
C655        C656   1.411       .  A
C655       Br664   1.930       .  S
C656       Br660   1.928       .  S
C665        C666   1.423       .  A
C665        C670   1.429       .  A
C666        C667   1.408       .  A
C666       Br678   1.928       .  S
C667        C668   1.405       .  A
C667       Br682   1.936       .  S
C668        C671   1.489       .  S
C668        C669   1.404       .  A
C669        C670   1.412       .  A
C669       Br677   1.933       .  S
C670       Br681   1.930       .  S
C671        C672   1.407       .  A
C671        C676   1.405       .  A
C672        C673   1.411       .  A
C672       Br683   1.932       .  S
C673        C674   1.422       .  A
C673       Br679   1.933       .  S
C674        C675   1.426       .  A
C675        C676   1.408       .  A
C675       Br684   1.934       .  S
C676       Br680   1.936       .  S
C685        C686   1.421       .  A
C685        C690   1.427       .  A
C686        C687   1.413       .  A
C686       Br698   1.913       .  S
C687        C688   1.407       .  A
C687       Br702   1.936       .  S
C688        C691   1.492       .  S
C688        C689   1.405       .  A
C689        C690   1.408       .  A
C689       Br697   1.932       .  S
C690       Br701   1.934       .  S
C691        C692   1.410       .  A
C691        C696   1.409       .  A
C692        C693   1.406       .  A
C692       Br703   1.935       .  S
C693        C694   1.420       .  A
C693       Br699   1.935       .  S
C694        C695   1.418       .  A
C695        C696   1.410       .  A
C695       Br704   1.934       .  S
C696       Br700   1.929       .  S
O705        C716   1.293       .  A
O705       Eu741   2.473       .  S
O706        C717   1.295       .  A
O706       Eu740   2.495       .  S
O707        C718   1.291       .  A
O707       Eu713   2.466       .  S
O708        C719   1.293       .  A
O708       Eu713   2.469       .  S
O709        C719   1.287       .  A
O709       Eu743   2.445       .  S
O710        C718   1.287       .  A
O710       Eu742   2.446       .  S
O711        C717   1.281       .  A
O711       Eu713   2.422       .  S
O712        C716   1.288       .  A
O712       Eu713   2.439       .  S
Eu713       O723   2.340       .  S
Eu713       O715   2.346       .  S
Eu713       O714   2.350       .  S
Eu713       O721   2.351       .  S
O714       Eu743   2.347       .  S
O714       Eu740   2.356       .  S
O715       Eu741   2.365       .  S
O715       Eu742   2.351       .  S
C716       C1398   1.491       .  S
C717       C1209   1.513       .  S
C718       C1249   1.495       .  S
C719       C1278   1.482       .  S
H720        O721   0.966       .  S
O721       Eu742   2.349       .  S
O721       Eu740   2.376       .  S
H722        O723   0.964       .  S
O723       Eu741   2.356       .  S
O723       Eu743   2.333       .  S
O724        C747   1.295       .  A
O724       Eu740   2.485       .  S
O725        C748   1.295       .  A
O725       Eu741   2.486       .  S
O726        C749   1.292       .  A
O726       Eu742   2.464       .  S
O727        C750   1.284       .  A
O727       Eu743   2.423       .  S
O728        C751   1.285       .  A
O728       Eu743   2.435       .  S
O729        C752   1.288       .  A
O729       Eu742   2.444       .  S
O730        C753   1.289       .  A
O730       Eu744   2.454       .  S
O731        C754   1.287       .  A
O731       Eu744   2.441       .  S
O732        C753   1.285       .  A
O732       Eu742   2.441       .  S
O733        C754   1.287       .  A
O733       Eu743   2.440       .  S
O734        C749   1.294       .  A
O734       Eu740   2.476       .  S
O735        C752   1.298       .  A
O735       Eu741   2.496       .  S
O736        C751   1.296       .  A
O736       Eu741   2.490       .  S
O737        C750   1.301       .  A
O737       Eu740   2.518       .  S
O738        C747   1.285       .  A
O738       Eu744   2.439       .  S
O739        C748   1.288       .  A
O739       Eu744   2.446       .  S
Eu740       O758   2.361       .  S
Eu740       O746   2.366       .  S
Eu741       O745   2.348       .  S
Eu741       O756   2.362       .  S
Eu742       O756   2.353       .  S
Eu742       O746   2.343       .  S
Eu743       O745   2.346       .  S
Eu743       O758   2.351       .  S
Eu744       O745   2.348       .  S
Eu744       O756   2.338       .  S
Eu744       O758   2.361       .  S
Eu744       O746   2.335       .  S
C747       C1229   1.501       .  S
C748       C1378   1.500       .  S
C749       C1169   1.478       .  S
C750       C1198   1.502       .  S
C751       C1329   1.497       .  S
C752       C1358   1.478       .  S
C753       C1318   1.491       .  S
C754       C1289   1.457       .  S
H755        O756   0.967       .  S
H757        O758   0.965       .  S
N759        C764   1.353       .  A
N759        H791   1.040       .  S
N760       C2175   1.347       .  A
N760        C768   1.349       .  A
N761        C766   1.349       .  A
N761        H792   1.040       .  S
N762       C2177   1.354       .  A
N762        C770   1.351       .  A
C763        C771   1.389       .  A
C763        C779   1.417       .  A
C764        C780   1.415       .  A
C764        C772   1.386       .  A
C765        C773   1.386       .  A
C765        C782   1.411       .  A
C766        C781   1.413       .  A
C766        C774   1.388       .  A
C767       N2168   1.346   1_455  A
C767        C779   1.412       .  A
C767        C775   1.388       .  A
C768        C782   1.406       .  A
C768        C776   1.384       .  A
C769       N2170   1.354   1_455  A
C769        C777   1.386       .  A
C769        C780   1.416       .  A
C770        C778   1.386       .  A
C770        C781   1.414       .  A
C771        H783   1.082       .  S
C772        H784   1.082       .  S
C773        H785   1.082       .  S
C774        H786   1.082       .  S
C775       C2184   1.377   1_455  A
C775        H787   1.082       .  S
C776       C2183   1.377       .  A
C776        H788   1.082       .  S
C777       C2186   1.375   1_455  A
C777        H789   1.082       .  S
C778       C2185   1.375       .  A
C778        H790   1.082       .  S
C779       C1298   1.486       .  S
C780       C1269   1.500       .  S
C781       C1258   1.484       .  S
C782       C1309   1.488       .  S
O793        C804   1.291       .  A
O793       Eu829   2.467       .  S
O794        C805   1.296       .  A
O794       Eu828   2.487       .  S
O795        C806   1.285       .  A
O795      Eu2209   2.431       .  S
O796        C807   1.282       .  A
O796       Eu801   2.416       .  S
O797        C807   1.296       .  A
O797       Eu831   2.484       .  S
O798        C806   1.290       .  A
O798       Eu830   2.465       .  S
O799        C805   1.293       .  A
O799       Eu801   2.474       .  S
O800        C804   1.297       .  A
O800       Eu801   2.499   1_556  S
Eu801      O2203   2.430       .  S
Eu801       O811   2.340   1_554  S
Eu801      O2211   2.342   1_554  S
Eu801       O802   2.367       .  S
Eu801      O2217   2.359       .  S
O802       Eu831   2.350       .  S
O802       Eu828   2.371       .  S
O803      Eu2209   2.341   1_556  S
O803      Eu2237   2.353       .  S
O803       Eu830   2.361   1_556  S
C804       C1149   1.517       .  S
C805        C969   1.486       .  S
C806       C1009   1.493       .  S
C807       C1029   1.474   1_554  S
H808        O809   0.965       .  S
O809      Eu2209   2.359       .  S
O809       Eu830   2.353       .  S
O809      Eu2236   2.366       .  S
H810        O811   0.965       .  S
O811       Eu829   2.362       .  S
O811       Eu831   2.356   1_556  S
O812        C835   1.294       .  A
O813        C836   1.293       .  A
O814        C837   1.289       .  A
O814       Eu830   2.445       .  S
O815        C838   1.296       .  A
O815       Eu831   2.482       .  S
O816       Eu831   2.437   1_556  S
O817       Eu830   2.411   1_556  S
O818        C841   1.282       .  A
O818      Eu2240   2.420   1_455  S
O819        C842   1.285       .  A
O819       Eu832   2.432       .  S
O820        C841   1.296   1_554  A
O821        C842   1.292   1_554  A
O822        C837   1.295       .  A
O822      Eu2236   2.484       .  S
O823        C840   1.305       .  A
O823      Eu1533   2.536       .  S
O824        C839   1.297       .  A
O825        C838   1.296       .  A
O825       Eu828   2.491       .  S
O826        C835   1.284       .  A
O826       Eu832   2.437   1_554  S
O827        C836   1.290       .  A
O827       Eu832   2.452       .  S
Eu828      O2230   2.484       .  S
Eu828      O2217   2.366       .  S
Eu828      O1538   2.360   1_565  S
Eu829      O1527   2.537       .  S
Eu829      O2211   2.353       .  S
Eu829      O1548   2.363   1_565  S
Eu832      O2226   2.419       .  S
Eu832       O833   2.330       .  S
Eu832      O2252   2.350       .  S
Eu832       O846   2.350   1_556  S
Eu832      O2242   2.354   1_556  S
O834      Eu1532   2.360       .  S
O834      Eu2240   2.354   1_454  S
C835        C998   1.512       .  S
C836       C1129   1.482       .  S
C837        C929   1.486       .  S
C838        C958   1.502       .  S
C841       C1069   1.472       .  S
C842       C1049   1.477   1_556  S
H843        O844   0.967       .  S
O844      Eu1533   2.362       .  S
O844      Eu2240   2.350   1_455  S
H845        O846   0.966       .  S
N847        C852   1.351       .  A
N847        C851   1.353       .  A
N847        H879   1.041       .  S
N848        C855   1.347       .  A
N848        C856   1.348       .  A
N849        C854   1.350       .  A
N849        C853   1.351       .  A
N849        H880   1.042       .  S
N850        C857   1.347       .  A
N850        C858   1.349       .  A
C851        C859   1.387   1_556  A
C851        C867   1.415       .  A
C852        C868   1.415       .  A
C852        C860   1.388   1_556  A
C853        C861   1.388   1_556  A
C853        C870   1.415       .  A
C854        C869   1.411       .  A
C854        C862   1.386   1_556  A
C855        C867   1.406       .  A
C855        C863   1.385       .  A
C856        C870   1.412       .  A
C856        C864   1.388       .  A
C857        C865   1.388       .  A
C857        C868   1.411       .  A
C858        C866   1.386       .  A
C858        C869   1.409       .  A
C859        C860   1.381       .  A
C859        H871   1.082       .  S
C860        H872   1.082       .  S
C861        C862   1.380       .  A
C861        H873   1.082       .  S
C862        H874   1.082       .  S
C863        C864   1.376       .  A
C863        H875   1.082       .  S
C864        H876   1.082       .  S
C865        C866   1.377       .  A
C865        H877   1.083       .  S
C866        H878   1.082       .  S
C867       C1058   1.488       .  S
C868       C1038   1.486       .  S
C869       C1018   1.485       .  S
C870       C1078   1.496       .  S
C881       C2290   1.528       .  S
C881        C887   1.532       .  S
C881        C885   1.552       .  S
C881        C989   1.556       .  S
C882       C2289   1.528   1_455  S
C882        H889   1.086       .  S
C882        C883   1.359       .  D
C883       C2292   1.565   1_455  S
C883       C1338   1.493       .  S
C884       C2291   1.565       .  S
C884        C888   1.560       .  S
C884        C886   1.542       .  S
C884        H890   1.095       .  S
C885        H891   1.082       .  S
C885        C886   1.370       .  D
C886       C1349   1.511       .  S
C887        H892   1.084       .  S
C887        C888   1.375       .  D
C888        C978   1.533       .  S
C893        C894   1.556       .  S
C893        C897   1.529       .  S
C893       C1389   1.560       .  S
C894        H901   1.085       .  S
C895        C896   1.550   1_545  S
C895        C949   1.529       .  S
C896        C900   1.544       .  S
C896        C898   1.558   1_565  S
C896        H902   1.094       .  S
C897        H903   1.085       .  S
C898        C938   1.490       .  S
C899        H904   1.086       .  S
C899        C900   1.375   1_545  D
C900       C1369   1.517       .  S
C905        C906   1.542       .  S
C905        C911   1.549       .  S
C905       C2317   1.531       .  S
C905       C1138   1.561       .  S
C906        H913   1.085       .  S
C906        C907   1.366       .  D
C907        C908   1.553       .  S
C907       C1178   1.508       .  S
C908        C912   1.551       .  S
C908       C2318   1.554       .  S
C908        H914   1.109       .  S
C909       C2313   1.531   1_455  S
C909        H915   1.086       .  S
C909        C910   1.366       .  D
C910       C2316   1.554   1_455  S
C910       C1189   1.507       .  S
C911        H916   1.084       .  S
C911        C912   1.374       .  D
C912       C1158   1.507       .  S
C917        C918   1.551       .  S
C917        C921   1.533       .  S
C917       C1218   1.560       .  S
C918        H925   1.084       .  S
C919        C920   1.549   1_545  S
C919       C1118   1.511   1_545  S
C920        C924   1.553       .  S
C920        C922   1.554   1_565  S
C920        H926   1.109       .  S
C921        H927   1.084       .  S
C922       C1089   1.502       .  S
C923        H928   1.086       .  S
C923        C924   1.370   1_545  D
C924       C1238   1.508       .  S
C929        C930   1.416       .  A
C930        C931   1.405       .  A
C930       Br942   1.929       .  S
C931        C932   1.405       .  A
C931       Br946   1.931       .  S
C932        C935   1.487       .  S
C933        C934   1.411       .  A
C933       Br941   1.929       .  S
C934       Br945   1.926       .  S
C935        C936   1.406       .  A
C935        C940   1.409   1_565  A
C936        C937   1.407       .  A
C936       Br947   1.930       .  S
C937        C938   1.415   1_565  A
C937       Br943   1.931       .  S
C938        C939   1.416       .  A
C939        C940   1.411       .  A
C940       Br944   1.930       .  S
C949        C950   1.430   1_545  A
C950        C951   1.418       .  A
C950       Br962   1.928       .  S
C951        C952   1.410       .  A
C951       Br966   1.937       .  S
C952        C955   1.501       .  S
C953        C954   1.410       .  A
C953       Br961   1.937       .  S
C954       Br965   1.916       .  S
C955        C956   1.414       .  A
C956        C957   1.413       .  A
C956       Br967   1.931       .  S
C957        C958   1.415       .  A
C957       Br963   1.925       .  S
C959        C960   1.411       .  A
C959       Br968   1.921       .  S
C960       Br964   1.935       .  S
C969        C970   1.410       .  A
C969       C2382   1.411       .  A
C970        C971   1.409       .  A
C970       Br982   1.928       .  S
C971        C972   1.412       .  A
C971       Br986   1.932       .  S
C972        C975   1.498       .  S
C972       C2381   1.414       .  A
C973       C2380   1.414       .  A
C973        C974   1.414       .  A
C973       Br981   1.930       .  S
C974       C2377   1.411       .  A
C974       Br985   1.927       .  S
C975       C2384   1.407       .  A
C975        C980   1.403       .  A
C976       C2383   1.407       .  A
C976        C977   1.421       .  A
C976       Br987   1.934       .  S
C977       C2386   1.435   1_455  A
C977       Br983   1.929       .  S
C978       C2385   1.435       .  A
C978        C979   1.430       .  A
C979        C980   1.404       .  A
C979       Br988   1.938       .  S
C980       Br984   1.935       .  S
C989       C2398   1.429       .  A
C989        C994   1.429       .  A
C990       C2397   1.429   1_455  A
C990        C991   1.410       .  A
C990      Br1002   1.939       .  S
C991       C2400   1.405   1_455  A
C991      Br1006   1.934       .  S
C992        C995   1.490       .  S
C992       C2399   1.405       .  A
C992        C993   1.404       .  A
C993        C994   1.413       .  A
C993      Br1001   1.935       .  S
C994      Br1005   1.930       .  S
C995        C996   1.402       .  A
C995       C2408   1.404       .  A
C996        C997   1.407       .  A
C996      Br1007   1.936       .  S
C997        C998   1.433       .  A
C997      Br1003   1.941       .  S
C998       C2407   1.429       .  A
C999       C2406   1.429   1_655  A
C999       C1000   1.413       .  A
C999      Br1008   1.936       .  S
C1000      C2403   1.404       .  A
C1000     Br1004   1.932       .  S
C1009      C1010   1.425       .  A
C1009      C1014   1.424   1_554  A
C1010      C1011   1.402       .  A
C1010     Br1022   1.937       .  S
C1011      C1012   1.402   1_554  A
C1011     Br1026   1.936       .  S
C1012      C1015   1.478       .  S
C1012      C1013   1.405       .  A
C1013      C1014   1.409       .  A
C1013     Br1021   1.932       .  S
C1014     Br1025   1.935       .  S
C1015      C1016   1.408   1_556  A
C1015      C1020   1.408       .  A
C1016      C1017   1.405       .  A
C1016     Br1027   1.931       .  S
C1017      C1018   1.410   1_554  A
C1017     Br1023   1.929       .  S
C1018      C1019   1.411       .  A
C1019      C1020   1.405       .  A
C1019     Br1028   1.929       .  S
C1020     Br1024   1.932       .  S
C1029      C1030   1.414   1_556  A
C1029      C1034   1.407       .  A
C1030      C1031   1.404       .  A
C1030     Br1042   1.926       .  S
C1031      C1032   1.407   1_554  A
C1031     Br1046   1.932       .  S
C1032      C1035   1.474       .  S
C1032      C1033   1.408       .  A
C1033      C1034   1.400       .  A
C1033     Br1041   1.931       .  S
C1034     Br1045   1.927       .  S
C1035      C1036   1.407       .  A
C1035      C1040   1.408   1_556  A
C1036      C1037   1.404       .  A
C1036     Br1047   1.932       .  S
C1037      C1038   1.411       .  A
C1037     Br1043   1.929       .  S
C1038      C1039   1.413   1_556  A
C1039      C1040   1.403       .  A
C1039     Br1048   1.931       .  S
C1040     Br1044   1.934       .  S
C1049      C1050   1.410   1_554  A
C1049      C1054   1.415       .  A
C1050      C1051   1.404       .  A
C1050     Br1062   1.925       .  S
C1051      C1052   1.409   1_556  A
C1051     Br1066   1.930       .  S
C1052      C1055   1.481   1_554  S
C1052      C1053   1.408       .  A
C1053      C1054   1.405       .  A
C1053     Br1061   1.932       .  S
C1054     Br1065   1.931       .  S
C1055      C1056   1.410       .  A
C1055      C1060   1.409   1_556  A
C1056      C1057   1.404       .  A
C1056     Br1067   1.933       .  S
C1057      C1058   1.408       .  A
C1057     Br1063   1.928       .  S
C1058      C1059   1.413   1_556  A
C1059      C1060   1.408       .  A
C1059     Br1068   1.928       .  S
C1060     Br1064   1.931       .  S
C1069      C1070   1.406       .  A
C1069      C1074   1.405   1_556  A
C1070      C1071   1.403       .  A
C1070     Br1082   1.921       .  S
C1071      C1072   1.412       .  A
C1071     Br1086   1.932       .  S
C1072      C1075   1.490       .  S
C1072      C1073   1.417   1_556  A
C1073      C1074   1.408       .  A
C1073     Br1081   1.931       .  S
C1074     Br1085   1.930       .  S
C1075      C1076   1.409   1_556  A
C1075      C1080   1.414       .  A
C1076      C1077   1.402       .  A
C1076     Br1087   1.932       .  S
C1077      C1078   1.414   1_554  A
C1077     Br1083   1.930       .  S
C1078      C1079   1.414       .  A
C1079      C1080   1.408       .  A
C1079     Br1088   1.933       .  S
C1080     Br1084   1.931       .  S
C1089      C1090   1.416   1_545  A
C1090      C1091   1.409       .  A
C1090     Br1102   1.922       .  S
C1091      C1092   1.405       .  A
C1091     Br1106   1.932       .  S
C1092      C1095   1.488       .  S
C1093      C1094   1.409       .  A
C1093     Br1101   1.932       .  S
C1094     Br1105   1.937       .  S
C1095      C1100   1.405       .  A
C1096      C1097   1.408       .  A
C1096     Br1107   1.938       .  S
C1097     Br1103   1.944       .  S
C1098      C1099   1.428       .  A
C1099      C1100   1.414       .  A
C1099     Br1108   1.935   1_565  S
C1100     Br1104   1.933   1_565  S
C1109      C1114   1.412       .  A
C1110      C1111   1.408       .  A
C1110     Br1122   1.926       .  S
C1111     Br1126   1.934       .  S
C1112      C1115   1.494       .  S
C1112      C1113   1.411       .  A
C1113      C1114   1.414       .  A
C1113     Br1121   1.928       .  S
C1114     Br1125   1.924       .  S
C1115      C1120   1.410       .  A
C1116      C1117   1.408       .  A
C1116     Br1127   1.933       .  S
C1117     Br1123   1.922       .  S
C1118      C1119   1.421       .  A
C1119      C1120   1.417       .  A
C1119     Br1128   1.925       .  S
C1120     Br1124   1.930       .  S
C1129      C1130   1.413       .  A
C1129      C2542   1.412       .  A
C1130      C1131   1.409       .  A
C1130     Br1142   1.930       .  S
C1131      C1132   1.409       .  A
C1131     Br1146   1.929       .  S
C1132      C1135   1.491       .  S
C1132      C2541   1.411       .  A
C1133      C2540   1.411   1_455  A
C1133      C1134   1.410       .  A
C1133     Br1141   1.929       .  S
C1134      C2537   1.412   1_455  A
C1134     Br1145   1.933       .  S
C1135      C1136   1.403       .  A
C1135      C2548   1.403       .  A
C1136      C1137   1.413       .  A
C1136     Br1147   1.933       .  S
C1137      C1138   1.432       .  A
C1137     Br1143   1.933       .  S
C1138      C2547   1.428       .  A
C1139      C2546   1.428   1_455  A
C1139      C1140   1.412       .  A
C1139     Br1148   1.922       .  S
C1140      C2543   1.403   1_455  A
C1140     Br1144   1.936       .  S
C1149      C2558   1.430       .  A
C1149      C1154   1.427       .  A
C1150      C2557   1.430   1_455  A
C1150      C1151   1.415       .  A
C1150     Br1162   1.934       .  S
C1151      C2560   1.406   1_455  A
C1151     Br1166   1.934       .  S
C1152      C1155   1.494       .  S
C1152      C2559   1.405       .  A
C1152      C1153   1.403       .  A
C1153      C1154   1.412       .  A
C1153     Br1161   1.935       .  S
C1154     Br1165   1.927       .  S
C1155      C1156   1.407       .  A
C1155      C2568   1.407       .  A
C1156      C1157   1.412       .  A
C1156     Br1167   1.932       .  S
C1157      C1158   1.418       .  A
C1157     Br1163   1.919       .  S
C1158      C2567   1.419       .  A
C1159      C2566   1.419   1_455  A
C1159      C1160   1.410       .  A
C1159     Br1168   1.926       .  S
C1160      C2563   1.407   1_455  A
C1160     Br1164   1.933       .  S
C1169      C1170   1.411       .  A
C1169      C1174   1.407       .  A
C1170      C1171   1.413       .  A
C1170     Br1182   1.930       .  S
C1171      C1172   1.413       .  A
C1171     Br1186   1.929       .  S
C1172      C1175   1.495       .  S
C1172      C1173   1.412       .  A
C1173      C1174   1.408       .  A
C1173     Br1181   1.928       .  S
C1174     Br1185   1.932       .  S
C1175      C1176   1.408       .  A
C1175      C1180   1.408       .  A
C1176      C1177   1.412       .  A
C1176     Br1187   1.932       .  S
C1177      C1178   1.416       .  A
C1177     Br1183   1.922       .  S
C1178      C1179   1.423       .  A
C1179      C1180   1.414       .  A
C1179     Br1188   1.935       .  S
C1180     Br1184   1.931       .  S
C1189      C1190   1.418       .  A
C1189      C1194   1.421       .  A
C1190      C1191   1.412       .  A
C1190     Br1202   1.921       .  S
C1191      C1192   1.407       .  A
C1191     Br1206   1.933       .  S
C1192      C1195   1.492       .  S
C1192      C1193   1.406       .  A
C1193      C1194   1.410       .  A
C1193     Br1201   1.932       .  S
C1194     Br1205   1.929       .  S
C1195      C1196   1.404       .  A
C1195      C1200   1.409       .  A
C1196      C1197   1.409       .  A
C1196     Br1207   1.936       .  S
C1197      C1198   1.426       .  A
C1197     Br1203   1.932       .  S
C1198      C1199   1.418       .  A
C1199      C1200   1.415       .  A
C1199     Br1208   1.929       .  S
C1200     Br1204   1.930       .  S
C1209      C1210   1.428       .  A
C1209      C1214   1.436       .  A
C1210      C1211   1.415       .  A
C1210     Br1222   1.936       .  S
C1211      C1212   1.406       .  A
C1211     Br1226   1.930       .  S
C1212      C1215   1.490       .  S
C1212      C1213   1.403       .  A
C1213      C1214   1.406       .  A
C1213     Br1221   1.942       .  S
C1214     Br1225   1.946       .  S
C1215      C1216   1.406       .  A
C1215      C1220   1.403       .  A
C1216      C1217   1.412       .  A
C1216     Br1227   1.936       .  S
C1217      C1218   1.432       .  A
C1217     Br1223   1.934       .  S
C1218      C1219   1.423       .  A
C1219      C1220   1.410       .  A
C1219     Br1228   1.919       .  S
C1220     Br1224   1.935       .  S
C1229      C1230   1.429       .  A
C1229      C1234   1.422       .  A
C1230      C1231   1.407       .  A
C1230     Br1242   1.941       .  S
C1231      C1232   1.404       .  A
C1231     Br1246   1.936       .  S
C1232      C1235   1.491       .  S
C1232      C1233   1.408       .  A
C1233      C1234   1.414       .  A
C1233     Br1241   1.930       .  S
C1234     Br1245   1.934       .  S
C1235      C1236   1.405       .  A
C1235      C1240   1.407       .  A
C1236      C1237   1.409       .  A
C1236     Br1247   1.934       .  S
C1237      C1238   1.420       .  A
C1237     Br1243   1.925       .  S
C1238      C1239   1.418       .  A
C1239      C1240   1.414       .  A
C1239     Br1248   1.921       .  S
C1240     Br1244   1.932       .  S
C1249      C1250   1.420       .  A
C1249      C1254   1.422       .  A
C1250      C1251   1.409       .  A
C1250     Br1262   1.933       .  S
C1251      C1252   1.408       .  A
C1251     Br1266   1.933       .  S
C1252      C1255   1.489       .  S
C1252      C1253   1.408       .  A
C1253      C1254   1.409       .  A
C1253     Br1261   1.934       .  S
C1254     Br1265   1.936       .  S
C1255      C1256   1.412       .  A
C1255      C1260   1.413       .  A
C1256      C1257   1.404       .  A
C1256     Br1267   1.930       .  S
C1257      C1258   1.407       .  A
C1257     Br1263   1.932       .  S
C1258      C1259   1.408       .  A
C1259      C1260   1.408       .  A
C1259     Br1268   1.930       .  S
C1260     Br1264   1.930       .  S
C1269      C1270   1.414       .  A
C1269      C1274   1.413       .  A
C1270      C1271   1.411       .  A
C1270     Br1282   1.929       .  S
C1271      C1272   1.410       .  A
C1271     Br1286   1.930       .  S
C1272      C1275   1.491       .  S
C1272      C1273   1.410       .  A
C1273      C1274   1.409       .  A
C1273     Br1281   1.931       .  S
C1274     Br1285   1.930       .  S
C1275      C1276   1.411       .  A
C1275      C1280   1.410       .  A
C1276      C1277   1.409       .  A
C1276     Br1287   1.931       .  S
C1277      C1278   1.414       .  A
C1277     Br1283   1.931       .  S
C1278      C1279   1.410       .  A
C1279      C1280   1.407       .  A
C1279     Br1288   1.932       .  S
C1280     Br1284   1.927       .  S
C1289      C1290   1.406       .  A
C1289      C1294   1.406       .  A
C1290      C1291   1.400       .  A
C1290     Br1302   1.935       .  S
C1291      C1292   1.411       .  A
C1291     Br1306   1.932       .  S
C1292      C1295   1.478       .  S
C1292      C1293   1.413       .  A
C1293      C1294   1.403       .  A
C1293     Br1301   1.931       .  S
C1294     Br1305   1.931       .  S
C1295      C1296   1.410       .  A
C1295      C1300   1.410       .  A
C1296      C1297   1.402       .  A
C1296     Br1307   1.933       .  S
C1297      C1298   1.410       .  A
C1297     Br1303   1.931       .  S
C1298      C1299   1.413       .  A
C1299      C1300   1.404       .  A
C1299     Br1308   1.931       .  S
C1300     Br1304   1.933       .  S
C1309      C1310   1.412       .  A
C1309      C1314   1.412       .  A
C1310      C1311   1.408       .  A
C1310     Br1322   1.926       .  S
C1311      C1312   1.408       .  A
C1311     Br1326   1.930       .  S
C1312      C1315   1.476       .  S
C1312      C1313   1.406       .  A
C1313      C1314   1.402       .  A
C1313     Br1321   1.932       .  S
C1314     Br1325   1.930       .  S
C1315      C1316   1.403       .  A
C1315      C1320   1.405       .  A
C1316      C1317   1.403       .  A
C1316     Br1327   1.932       .  S
C1317      C1318   1.420       .  A
C1317     Br1323   1.934       .  S
C1318      C1319   1.425       .  A
C1319      C1320   1.407       .  A
C1319     Br1328   1.936       .  S
C1320     Br1324   1.934       .  S
C1329      C1330   1.427       .  A
C1329      C1334   1.420       .  A
C1330      C1331   1.408       .  A
C1330     Br1342   1.936       .  S
C1331      C1332   1.404       .  A
C1331     Br1346   1.934       .  S
C1332      C1335   1.489       .  S
C1332      C1333   1.408       .  A
C1333      C1334   1.411       .  A
C1333     Br1341   1.931       .  S
C1334     Br1345   1.932       .  S
C1335      C1336   1.409       .  A
C1335      C1340   1.407       .  A
C1336      C1337   1.410       .  A
C1336     Br1347   1.931       .  S
C1337      C1338   1.417       .  A
C1337     Br1343   1.934       .  S
C1338      C1339   1.413       .  A
C1339      C1340   1.409       .  A
C1339     Br1348   1.927       .  S
C1340     Br1344   1.931       .  S
C1349      C1350   1.418       .  A
C1349      C1354   1.416       .  A
C1350      C1351   1.416       .  A
C1350     Br1362   1.921       .  S
C1351      C1352   1.409       .  A
C1351     Br1366   1.930       .  S
C1352      C1355   1.495       .  S
C1352      C1353   1.405       .  A
C1353      C1354   1.410       .  A
C1353     Br1361   1.931       .  S
C1354     Br1365   1.921       .  S
C1355      C1356   1.412       .  A
C1355      C1360   1.411       .  A
C1356      C1357   1.411       .  A
C1356     Br1367   1.928       .  S
C1357      C1358   1.409       .  A
C1357     Br1363   1.930       .  S
C1358      C1359   1.410       .  A
C1359      C1360   1.410       .  A
C1359     Br1368   1.930       .  S
C1360     Br1364   1.928       .  S
C1369      C1370   1.423       .  A
C1369      C1374   1.429       .  A
C1370      C1371   1.408       .  A
C1370     Br1382   1.928       .  S
C1371      C1372   1.405       .  A
C1371     Br1386   1.936       .  S
C1372      C1375   1.488       .  S
C1372      C1373   1.404       .  A
C1373      C1374   1.412       .  A
C1373     Br1381   1.933       .  S
C1374     Br1385   1.930       .  S
C1375      C1376   1.407       .  A
C1375      C1380   1.405       .  A
C1376      C1377   1.411       .  A
C1376     Br1387   1.932       .  S
C1377      C1378   1.422       .  A
C1377     Br1383   1.933       .  S
C1378      C1379   1.426       .  A
C1379      C1380   1.408       .  A
C1379     Br1388   1.934       .  S
C1380     Br1384   1.936       .  S
C1389      C1390   1.421       .  A
C1389      C1394   1.426       .  A
C1390      C1391   1.412       .  A
C1390     Br1402   1.913       .  S
C1391      C1392   1.407       .  A
C1391     Br1406   1.936       .  S
C1392      C1395   1.491       .  S
C1392      C1393   1.405       .  A
C1393      C1394   1.408       .  A
C1393     Br1401   1.932       .  S
C1394     Br1405   1.934       .  S
C1395      C1396   1.410       .  A
C1395      C1400   1.409       .  A
C1396      C1397   1.406       .  A
C1396     Br1407   1.935       .  S
C1397      C1398   1.420       .  A
C1397     Br1403   1.935       .  S
C1398      C1399   1.418       .  A
C1399      C1400   1.410       .  A
C1399     Br1408   1.934       .  S
C1400     Br1404   1.929       .  S
O1409      C1420   1.293       .  A
O1409     Eu1445   2.475       .  S
O1410      C1421   1.295       .  A
O1410     Eu1444   2.493       .  S
O1411      C1422   1.291       .  A
O1411     Eu1417   2.465       .  S
O1412      C1423   1.293       .  A
O1412     Eu1417   2.470       .  S
O1413      C1423   1.288       .  A
O1413     Eu1447   2.446       .  S
O1414      C1422   1.287       .  A
O1414     Eu1446   2.446       .  S
O1415      C1421   1.281       .  A
O1415     Eu1417   2.422       .  S
O1416      C1420   1.288       .  A
O1416     Eu1417   2.440       .  S
Eu1417     O1427   2.340       .  S
Eu1417     O1419   2.346       .  S
Eu1417     O1418   2.349       .  S
Eu1417     O1425   2.352       .  S
O1418     Eu1447   2.346       .  S
O1418     Eu1444   2.356       .  S
O1419     Eu1445   2.365       .  S
O1419     Eu1446   2.351       .  S
C1420      C2102   1.492       .  S
C1421      C1913   1.513       .  S
C1422      C1953   1.495       .  S
C1423      C1982   1.483       .  S
H1424      O1425   0.966       .  S
O1425     Eu1446   2.349       .  S
O1425     Eu1444   2.376       .  S
H1426      O1427   0.964       .  S
O1427     Eu1445   2.356       .  S
O1427     Eu1447   2.334       .  S
O1428      C1451   1.295       .  A
O1428     Eu1444   2.483       .  S
O1429      C1452   1.295       .  A
O1429     Eu1445   2.487       .  S
O1430      C1453   1.292       .  A
O1430     Eu1446   2.464       .  S
O1431      C1454   1.284       .  A
O1431     Eu1447   2.423       .  S
O1432      C1455   1.285       .  A
O1432     Eu1447   2.433       .  S
O1433      C1456   1.288       .  A
O1433     Eu1446   2.445       .  S
O1434      C1457   1.289       .  A
O1434     Eu1448   2.454       .  S
O1435      C1458   1.287       .  A
O1435     Eu1448   2.442       .  S
O1436      C1457   1.285       .  A
O1436     Eu1446   2.441       .  S
O1437      C1458   1.287       .  A
O1437     Eu1447   2.441       .  S
O1438      C1453   1.294       .  A
O1438     Eu1444   2.477       .  S
O1439      C1456   1.298       .  A
O1439     Eu1445   2.495       .  S
O1440      C1455   1.296       .  A
O1440     Eu1445   2.489       .  S
O1441      C1454   1.301       .  A
O1441     Eu1444   2.519       .  S
O1442      C1451   1.285       .  A
O1442     Eu1448   2.440       .  S
O1443      C1452   1.288       .  A
O1443     Eu1448   2.445       .  S
Eu1444     O1462   2.360       .  S
Eu1444     O1450   2.365       .  S
Eu1445     O1449   2.348       .  S
Eu1445     O1460   2.362       .  S
Eu1446     O1460   2.354       .  S
Eu1446     O1450   2.343       .  S
Eu1447     O1449   2.346       .  S
Eu1447     O1462   2.352       .  S
Eu1448     O1449   2.348       .  S
Eu1448     O1460   2.339       .  S
Eu1448     O1462   2.362       .  S
Eu1448     O1450   2.335       .  S
C1451      C1933   1.500       .  S
C1452      C2082   1.500       .  S
C1453      C1873   1.479       .  S
C1454      C1902   1.503       .  S
C1455      C2033   1.496       .  S
C1456      C2062   1.478       .  S
C1457      C2022   1.491       .  S
C1458      C1993   1.458       .  S
H1459      O1460   0.967       .  S
H1461      O1462   0.965       .  S
N1463      C1468   1.353       .  A
N1463      C2171   1.351   1_545  A
N1463      H1495   1.040       .  S
N1464      C1472   1.348       .  A
N1465      C1470   1.349       .  A
N1465      C2173   1.354   1_545  A
N1465      H1496   1.040       .  S
N1466      C1474   1.351       .  A
C1467      N2167   1.351       .  A
C1467      C1475   1.389       .  A
C1467      C1483   1.417       .  A
C1468      C1484   1.415       .  A
C1468      C1476   1.386       .  A
C1469      N2169   1.354       .  A
C1469      C1477   1.386       .  A
C1469      C1486   1.411       .  A
C1470      C1485   1.413       .  A
C1470      C1478   1.389       .  A
C1471      C1483   1.412       .  A
C1471      C1479   1.388       .  A
C1472      C1486   1.406       .  A
C1472      C1480   1.384       .  A
C1473      C1481   1.386       .  A
C1473      C1484   1.417       .  A
C1474      C1482   1.386       .  A
C1474      C1485   1.414       .  A
C1475      C2180   1.379       .  A
C1475      H1487   1.082       .  S
C1476      C2179   1.379   1_545  A
C1476      H1488   1.082       .  S
C1477      C2182   1.373       .  A
C1477      H1489   1.082       .  S
C1478      C2181   1.373   1_545  A
C1478      H1490   1.082       .  S
C1479      H1491   1.082       .  S
C1480      H1492   1.082       .  S
C1481      H1493   1.082       .  S
C1482      H1494   1.082       .  S
C1483      C2002   1.487       .  S
C1484      C1973   1.501       .  S
C1485      C1962   1.483       .  S
C1486      C2013   1.487       .  S
O1497      C1508   1.291   1_655  A
O1497     Eu1533   2.468   1_655  S
O1498      C1509   1.296       .  A
O1498     Eu1532   2.486       .  S
O1499      C1510   1.285       .  A
O1500      C1511   1.282       .  A
O1500     Eu1505   2.416   1_655  S
O1501      C1511   1.296       .  A
O1501     Eu1535   2.483       .  S
O1502      C1510   1.290       .  A
O1502     Eu1534   2.465       .  S
O1503      C1509   1.293       .  A
O1503     Eu1505   2.473       .  S
O1504      C1508   1.297       .  A
O1504     Eu1505   2.499   1_556  S
Eu1505     O1515   2.339   1_454  S
Eu1505     O1506   2.368   1_455  S
O1506     Eu1535   2.349       .  S
O1506     Eu1532   2.371   1_655  S
O1507     Eu1534   2.361   1_556  S
C1508      C1853   1.517   1_455  S
C1509      C1673   1.485       .  S
C1510      C1713   1.493       .  S
C1511      C1733   1.474   1_554  S
H1512      O1513   0.965       .  S
O1513     Eu1534   2.353       .  S
H1514      O1515   0.965       .  S
O1515     Eu1533   2.362   1_655  S
O1515     Eu1535   2.356   1_556  S
O1516      C1539   1.294       .  A
O1516     Eu2236   2.487   1_545  S
O1517      C1540   1.292       .  A
O1517     Eu2237   2.470   1_645  S
O1518      C1541   1.289       .  A
O1518     Eu1534   2.445       .  S
O1519      C1542   1.296       .  A
O1519     Eu1535   2.483       .  S
O1520      C2247   1.284       .  A
O1520     Eu1535   2.436   1_556  S
O1521      C2248   1.284       .  A
O1521     Eu1534   2.412   1_556  S
O1522      C1545   1.282       .  A
O1523      C1546   1.286       .  A
O1523     Eu1536   2.433       .  S
O1524      C1545   1.296   1_554  A
O1524     Eu2238   2.494   1_545  S
O1525      C1546   1.291   1_554  A
O1525     Eu2239   2.463   1_545  S
O1526      C1541   1.295       .  A
O1527      C1544   1.305       .  A
O1528      C1543   1.297       .  A
O1528     Eu2237   2.498   1_655  S
O1529      C1542   1.297       .  A
O1529     Eu1532   2.493   1_655  S
O1530      C1539   1.284   1_655  A
O1530     Eu1536   2.436   1_554  S
O1531      C1540   1.290       .  A
O1531     Eu1536   2.453       .  S
Eu1532     O2220   2.487       .  S
Eu1532     O2254   2.360   1_455  S
Eu1533     O2221   2.470   1_455  S
Eu1533     O2232   2.498   1_455  S
Eu1533     O2241   2.365   1_455  S
Eu1534     O2228   2.494       .  S
Eu1534     O2252   2.358   1_554  S
Eu1534     O2242   2.336       .  S
Eu1535     O2229   2.462       .  S
Eu1535     O2241   2.358   1_554  S
Eu1535     O2254   2.344       .  S
Eu1536     O1537   2.330       .  S
Eu1536     O1550   2.350   1_556  S
O1537     Eu2237   2.365   1_645  S
O1537     Eu2239   2.359   1_546  S
O1538     Eu2238   2.335   1_545  S
C1539      C1702   1.511       .  S
C1540      C1833   1.483       .  S
C1541      C1633   1.486       .  S
C1542      C1662   1.503       .  S
C1543      O2224   1.284       .  A
C1543      C2506   1.511       .  S
C1544      O2225   1.284       .  A
C1544      C2517   1.493       .  S
C1545      C1773   1.472       .  S
C1546      C1753   1.477   1_556  S
H1547      O1548   0.967       .  S
O1548     Eu2238   2.358   1_546  S
H1549      O1550   0.966       .  S
O1550     Eu2236   2.361   1_645  S
O1550     Eu2239   2.344   1_545  S
N1551      C1556   1.351       .  A
N1551      C1555   1.352       .  A
N1551      H1583   1.041       .  S
N1552      C1559   1.347       .  A
N1552      C1560   1.348       .  A
N1553      C1558   1.350       .  A
N1553      C1557   1.351       .  A
N1553      H1584   1.042       .  S
N1554      C1561   1.347       .  A
N1554      C1562   1.349       .  A
C1555      C1563   1.387   1_556  A
C1555      C1571   1.415       .  A
C1556      C1572   1.416       .  A
C1556      C1564   1.388   1_556  A
C1557      C1565   1.388   1_556  A
C1557      C1574   1.415       .  A
C1558      C1573   1.411       .  A
C1558      C1566   1.386   1_556  A
C1559      C1571   1.406       .  A
C1559      C1567   1.385       .  A
C1560      C1574   1.412       .  A
C1560      C1568   1.388       .  A
C1561      C1569   1.388       .  A
C1561      C1572   1.411       .  A
C1562      C1570   1.386       .  A
C1562      C1573   1.409       .  A
C1563      C1564   1.381       .  A
C1563      H1575   1.082       .  S
C1564      H1576   1.082       .  S
C1565      C1566   1.380       .  A
C1565      H1577   1.082       .  S
C1566      H1578   1.082       .  S
C1567      C1568   1.376       .  A
C1567      H1579   1.082       .  S
C1568      H1580   1.082       .  S
C1569      C1570   1.377       .  A
C1569      H1581   1.083       .  S
C1570      H1582   1.082       .  S
C1571      C1762   1.488       .  S
C1572      C1742   1.486       .  S
C1573      C1722   1.486       .  S
C1574      C1782   1.496       .  S
C1585      C1591   1.532       .  S
C1585      C1589   1.552       .  S
C1585      C1693   1.556       .  S
C1586      H1593   1.086       .  S
C1586      C1587   1.359       .  D
C1587      C2042   1.493       .  S
C1588      C1592   1.560       .  S
C1588      C1590   1.542       .  S
C1588      H1594   1.095       .  S
C1589      H1595   1.082       .  S
C1589      C1590   1.371       .  D
C1590      C2053   1.511       .  S
C1591      H1596   1.084   1_655  S
C1591      C1592   1.375       .  D
C1592      C1682   1.533       .  S
C1597      C1598   1.555       .  S
C1597      C2307   1.539       .  S
C1597      C1601   1.530       .  S
C1597      C2093   1.560       .  S
C1598      H1605   1.085       .  S
C1598      C2303   1.382       .  D
C1599      C1600   1.551       .  S
C1599      C2302   1.382       .  D
C1599      C1653   1.529       .  S
C1600      C1604   1.544       .  S
C1600      C1602   1.559       .  S
C1600      H1606   1.094       .  S
C1601      H1607   1.085       .  S
C1601      C2306   1.354       .  D
C1602      C2305   1.354       .  D
C1602      C1642   1.490       .  S
C1603      C2301   1.540       .  S
C1603      H1608   1.086       .  S
C1603      C1604   1.375       .  D
C1604      C2073   1.517       .  S
C1609      C1610   1.543       .  S
C1609      C1615   1.549       .  S
C1609      C1842   1.562       .  S
C1610      H1617   1.085       .  S
C1610      C1611   1.366       .  D
C1611      C1612   1.554       .  S
C1611      C1882   1.509       .  S
C1612      C1616   1.552       .  S
C1612      H1618   1.109       .  S
C1613      H1619   1.086       .  S
C1613      C1614   1.366       .  D
C1614      C1893   1.507       .  S
C1615      H1620   1.084       .  S
C1615      C1616   1.375       .  D
C1616      C1862   1.509       .  S
C1621      C1622   1.551       .  S
C1621      C2331   1.535       .  S
C1621      C1625   1.533       .  S
C1621      C1922   1.559       .  S
C1622      H1629   1.084       .  S
C1622      C2327   1.375       .  D
C1623      C1624   1.551       .  S
C1623      C2326   1.375       .  D
C1623      C1822   1.513       .  S
C1624      C1628   1.553       .  S
C1624      C1626   1.553       .  S
C1624      H1630   1.109       .  S
C1625      H1631   1.084       .  S
C1625      C2330   1.362       .  D
C1626      C2329   1.362       .  D
C1626      C1793   1.501       .  S
C1627      C2325   1.535       .  S
C1627      H1632   1.086       .  S
C1627      C1628   1.369       .  D
C1628      C1942   1.507       .  S
C1633      C1634   1.416       .  A
C1633      C2342   1.413       .  A
C1634      C1635   1.405       .  A
C1634     Br1646   1.928       .  S
C1635      C1636   1.405       .  A
C1635     Br1650   1.931       .  S
C1636      C1639   1.487       .  S
C1636      C2341   1.411       .  A
C1637      C2340   1.411   1_545  A
C1637      C1638   1.411       .  A
C1637     Br1645   1.930       .  S
C1638      C2337   1.412   1_545  A
C1638     Br1649   1.926       .  S
C1639      C1640   1.406       .  A
C1639      C1644   1.409       .  A
C1640      C1641   1.407       .  A
C1640     Br1651   1.930       .  S
C1641      C1642   1.415       .  A
C1641     Br1647   1.931       .  S
C1642      C1643   1.416       .  A
C1643      C1644   1.411       .  A
C1643     Br2356   1.932       .  S
C1644     Br1648   1.930       .  S
Br1652     C2347   1.932       .  S
C1653      C1654   1.430       .  A
C1653      C2362   1.424       .  A
C1654      C1655   1.419       .  A
C1654     Br1666   1.928       .  S
C1655      C1656   1.411       .  A
C1655     Br1670   1.937       .  S
C1656      C1659   1.502       .  S
C1656      C2361   1.405       .  A
C1657      C2360   1.405   1_545  A
C1657      C1658   1.410       .  A
C1657     Br1665   1.937       .  S
C1658      C2357   1.424       .  A
C1658     Br1669   1.916       .  S
C1659      C1660   1.414       .  A
C1659      C2368   1.409       .  A
C1660      C1661   1.414       .  A
C1660     Br1671   1.931       .  S
C1661      C1662   1.415       .  A
C1661     Br1667   1.925       .  S
C1662      C2367   1.418       .  A
C1663      C2366   1.418   1_545  A
C1663      C1664   1.412       .  A
C1663     Br1672   1.921       .  S
C1664      C2363   1.409   1_545  A
C1664     Br1668   1.935       .  S
C1673      C1674   1.409   1_455  A
C1674      C1675   1.409       .  A
C1674     Br1686   1.928       .  S
C1675      C1676   1.413   1_655  A
C1675     Br1690   1.932       .  S
C1676      C1679   1.498       .  S
C1677      C1678   1.414       .  A
C1677     Br1685   1.930       .  S
C1678     Br1689   1.927       .  S
C1679      C1684   1.403   1_455  A
C1680      C1681   1.421       .  A
C1680     Br1691   1.934       .  S
C1681     Br1687   1.928       .  S
C1682      C1683   1.430       .  A
C1683      C1684   1.404       .  A
C1683     Br1692   1.938       .  S
C1684     Br1688   1.935       .  S
C1693      C1698   1.429       .  A
C1694      C1695   1.410       .  A
C1694     Br1706   1.939       .  S
C1695     Br1710   1.934       .  S
C1696      C1699   1.490       .  S
C1696      C1697   1.404       .  A
C1697      C1698   1.413       .  A
C1697     Br1705   1.935       .  S
C1698     Br1709   1.930       .  S
C1699      C1700   1.402       .  A
C1700      C1701   1.407   1_655  A
C1700     Br1711   1.936       .  S
C1701      C1702   1.433       .  A
C1701     Br1707   1.941       .  S
C1703      C1704   1.413       .  A
C1703     Br1712   1.936       .  S
C1704     Br1708   1.932       .  S
C1713      C1714   1.425       .  A
C1713      C1718   1.424   1_554  A
C1714      C1715   1.402       .  A
C1714     Br1726   1.937       .  S
C1715      C1716   1.402   1_554  A
C1715     Br1730   1.936       .  S
C1716      C1719   1.478       .  S
C1716      C1717   1.405       .  A
C1717      C1718   1.409       .  A
C1717     Br1725   1.932       .  S
C1718     Br1729   1.935       .  S
C1719      C1720   1.408   1_556  A
C1719      C1724   1.408       .  A
C1720      C1721   1.405       .  A
C1720     Br1731   1.931       .  S
C1721      C1722   1.410   1_554  A
C1721     Br1727   1.929       .  S
C1722      C1723   1.411       .  A
C1723      C1724   1.405       .  A
C1723     Br1732   1.929       .  S
C1724     Br1728   1.932       .  S
C1733      C1734   1.415   1_556  A
C1733      C1738   1.407       .  A
C1734      C1735   1.404       .  A
C1734     Br1746   1.927       .  S
C1735      C1736   1.406   1_554  A
C1735     Br1750   1.932       .  S
C1736      C1739   1.473       .  S
C1736      C1737   1.407       .  A
C1737      C1738   1.400       .  A
C1737     Br1745   1.931       .  S
C1738     Br1749   1.927       .  S
C1739      C1740   1.407       .  A
C1739      C1744   1.407   1_556  A
C1740      C1741   1.404       .  A
C1740     Br1751   1.932       .  S
C1741      C1742   1.412       .  A
C1741     Br1747   1.929       .  S
C1742      C1743   1.413   1_556  A
C1743      C1744   1.403       .  A
C1743     Br1752   1.931       .  S
C1744     Br1748   1.933       .  S
C1753      C1754   1.410   1_554  A
C1753      C1758   1.415       .  A
C1754      C1755   1.405       .  A
C1754     Br1766   1.925       .  S
C1755      C1756   1.409   1_556  A
C1755     Br1770   1.930       .  S
C1756      C1759   1.481   1_554  S
C1756      C1757   1.408       .  A
C1757      C1758   1.405       .  A
C1757     Br1765   1.932       .  S
C1758     Br1769   1.932       .  S
C1759      C1760   1.410       .  A
C1759      C1764   1.409   1_556  A
C1760      C1761   1.404       .  A
C1760     Br1771   1.933       .  S
C1761      C1762   1.408       .  A
C1761     Br1767   1.929       .  S
C1762      C1763   1.413   1_556  A
C1763      C1764   1.408       .  A
C1763     Br1772   1.928       .  S
C1764     Br1768   1.931       .  S
C1773      C1774   1.406       .  A
C1773      C1778   1.405   1_556  A
C1774      C1775   1.403       .  A
C1774     Br1786   1.921       .  S
C1775      C1776   1.412       .  A
C1775     Br1790   1.932       .  S
C1776      C1779   1.490       .  S
C1776      C1777   1.418   1_556  A
C1777      C1778   1.408       .  A
C1777     Br1785   1.931       .  S
C1778     Br1789   1.930       .  S
C1779      C1780   1.409   1_556  A
C1779      C1784   1.414       .  A
C1780      C1781   1.402       .  A
C1780     Br1791   1.932       .  S
C1781      C1782   1.414   1_554  A
C1781     Br1787   1.930       .  S
C1782      C1783   1.414       .  A
C1783      C1784   1.408       .  A
C1783     Br1792   1.932       .  S
C1784     Br1788   1.931       .  S
C1793      C1794   1.416       .  A
C1793      C2502   1.424       .  A
C1794      C1795   1.409       .  A
C1794     Br1806   1.922       .  S
C1795      C1796   1.405       .  A
C1795     Br1810   1.932       .  S
C1796      C1799   1.487       .  S
C1796      C2501   1.407       .  A
C1797      C2500   1.407   1_545  A
C1797      C1798   1.409       .  A
C1797     Br1805   1.933       .  S
C1798      C2497   1.424       .  A
C1798     Br1809   1.937       .  S
C1799      C2504   1.400       .  A
C1799      C1804   1.405       .  A
C1800      C2503   1.400       .  A
C1800      C1801   1.408       .  A
C1800     Br1811   1.938       .  S
C1801      C2506   1.436       .  A
C1801     Br1807   1.944       .  S
C1802      C2247   1.512       .  S
C1802      C2505   1.437       .  A
C1802      C1803   1.428       .  A
C1803      C1804   1.413       .  A
C1803     Br1812   1.936       .  S
C1804     Br1808   1.933       .  S
C1813      C2248   1.493       .  S
C1813      C2518   1.418       .  A
C1813      C1818   1.412       .  A
C1814      C2517   1.418   1_545  A
C1814      C1815   1.408       .  A
C1814     Br1826   1.925       .  S
C1815      C2520   1.407   1_545  A
C1815     Br1830   1.934       .  S
C1816      C1819   1.495       .  S
C1816      C2519   1.407       .  A
C1816      C1817   1.412       .  A
C1817      C1818   1.415       .  A
C1817     Br1825   1.928       .  S
C1818     Br1829   1.924       .  S
C1819      C2524   1.404       .  A
C1819      C1824   1.410       .  A
C1820      C2523   1.404       .  A
C1820      C1821   1.407       .  A
C1820     Br1831   1.933   1_565  S
C1821      C2526   1.419       .  A
C1821     Br1827   1.922   1_565  S
C1822      C2525   1.419       .  A
C1822      C1823   1.421       .  A
C1823      C1824   1.417       .  A
C1823     Br1832   1.925       .  S
C1824     Br1828   1.931       .  S
C1833      C1834   1.413       .  A
C1834      C1835   1.409       .  A
C1834     Br1846   1.931       .  S
C1835      C1836   1.409       .  A
C1835     Br1850   1.929       .  S
C1836      C1839   1.491       .  S
C1837      C1838   1.410       .  A
C1837     Br1845   1.929       .  S
C1838     Br1849   1.932       .  S
C1839      C1840   1.403       .  A
C1840      C1841   1.414       .  A
C1840     Br1851   1.933       .  S
C1841      C1842   1.432       .  A
C1841     Br1847   1.934       .  S
C1843      C1844   1.412       .  A
C1843     Br1852   1.922       .  S
C1844     Br1848   1.936       .  S
C1853      C1858   1.427       .  A
C1854      C1855   1.416       .  A
C1854     Br1866   1.933       .  S
C1855     Br1870   1.934       .  S
C1856      C1859   1.494       .  S
C1856      C1857   1.403       .  A
C1857      C1858   1.412       .  A
C1857     Br1865   1.935       .  S
C1858     Br1869   1.927       .  S
C1859      C1860   1.407       .  A
C1860      C1861   1.412       .  A
C1860     Br1871   1.932       .  S
C1861      C1862   1.418       .  A
C1861     Br1867   1.918       .  S
C1863      C1864   1.410       .  A
C1863     Br1872   1.926       .  S
C1864     Br1868   1.933       .  S
C1873      C1874   1.411       .  A
C1873      C1878   1.407       .  A
C1874      C1875   1.414       .  A
C1874     Br1886   1.930       .  S
C1875      C1876   1.413       .  A
C1875     Br1890   1.929       .  S
C1876      C1879   1.496       .  S
C1876      C1877   1.412       .  A
C1877      C1878   1.408       .  A
C1877     Br1885   1.928       .  S
C1878     Br1889   1.932       .  S
C1879      C1880   1.408       .  A
C1879      C1884   1.408       .  A
C1880      C1881   1.413       .  A
C1880     Br1891   1.932       .  S
C1881      C1882   1.416       .  A
C1881     Br1887   1.922       .  S
C1882      C1883   1.423       .  A
C1883      C1884   1.414       .  A
C1883     Br1892   1.935       .  S
C1884     Br1888   1.931       .  S
C1893      C1894   1.418       .  A
C1893      C1898   1.421       .  A
C1894      C1895   1.412       .  A
C1894     Br1906   1.921       .  S
C1895      C1896   1.407       .  A
C1895     Br1910   1.933       .  S
C1896      C1899   1.492       .  S
C1896      C1897   1.406       .  A
C1897      C1898   1.410       .  A
C1897     Br1905   1.932       .  S
C1898     Br1909   1.929       .  S
C1899      C1900   1.404       .  A
C1899      C1904   1.409       .  A
C1900      C1901   1.409       .  A
C1900     Br1911   1.936       .  S
C1901      C1902   1.427       .  A
C1901     Br1907   1.933       .  S
C1902      C1903   1.419       .  A
C1903      C1904   1.415       .  A
C1903     Br1912   1.929       .  S
C1904     Br1908   1.930       .  S
C1913      C1914   1.428       .  A
C1913      C1918   1.436       .  A
C1914      C1915   1.414       .  A
C1914     Br1926   1.936       .  S
C1915      C1916   1.405       .  A
C1915     Br1930   1.930       .  S
C1916      C1919   1.489       .  S
C1916      C1917   1.403       .  A
C1917      C1918   1.405       .  A
C1917     Br1925   1.942       .  S
C1918     Br1929   1.946       .  S
C1919      C1920   1.405       .  A
C1919      C1924   1.403       .  A
C1920      C1921   1.411       .  A
C1920     Br1931   1.936       .  S
C1921      C1922   1.431       .  A
C1921     Br1927   1.934       .  S
C1922      C1923   1.423       .  A
C1923      C1924   1.409       .  A
C1923     Br1932   1.919       .  S
C1924     Br1928   1.935       .  S
C1933      C1934   1.428       .  A
C1933      C1938   1.422       .  A
C1934      C1935   1.406       .  A
C1934     Br1946   1.941       .  S
C1935      C1936   1.404       .  A
C1935     Br1950   1.936       .  S
C1936      C1939   1.490       .  S
C1936      C1937   1.408       .  A
C1937      C1938   1.413       .  A
C1937     Br1945   1.930       .  S
C1938     Br1949   1.934       .  S
C1939      C1940   1.405       .  A
C1939      C1944   1.407       .  A
C1940      C1941   1.409       .  A
C1940     Br1951   1.934       .  S
C1941      C1942   1.420       .  A
C1941     Br1947   1.926       .  S
C1942      C1943   1.418       .  A
C1943      C1944   1.413       .  A
C1943     Br1952   1.921       .  S
C1944     Br1948   1.932       .  S
C1953      C1954   1.420       .  A
C1953      C1958   1.422       .  A
C1954      C1955   1.409       .  A
C1954     Br1966   1.933       .  S
C1955      C1956   1.408       .  A
C1955     Br1970   1.933       .  S
C1956      C1959   1.489       .  S
C1956      C1957   1.408       .  A
C1957      C1958   1.409       .  A
C1957     Br1965   1.934       .  S
C1958     Br1969   1.936       .  S
C1959      C1960   1.412       .  A
C1959      C1964   1.413       .  A
C1960      C1961   1.404       .  A
C1960     Br1971   1.930       .  S
C1961      C1962   1.407       .  A
C1961     Br1967   1.932       .  S
C1962      C1963   1.408       .  A
C1963      C1964   1.408       .  A
C1963     Br1972   1.930       .  S
C1964     Br1968   1.930       .  S
C1973      C1974   1.414       .  A
C1973      C1978   1.414       .  A
C1974      C1975   1.411       .  A
C1974     Br1986   1.929       .  S
C1975      C1976   1.410       .  A
C1975     Br1990   1.930       .  S
C1976      C1979   1.492       .  S
C1976      C1977   1.410       .  A
C1977      C1978   1.409       .  A
C1977     Br1985   1.931       .  S
C1978     Br1989   1.930       .  S
C1979      C1980   1.411       .  A
C1979      C1984   1.410       .  A
C1980      C1981   1.410       .  A
C1980     Br1991   1.931       .  S
C1981      C1982   1.415       .  A
C1981     Br1987   1.931       .  S
C1982      C1983   1.410       .  A
C1983      C1984   1.408       .  A
C1983     Br1992   1.932       .  S
C1984     Br1988   1.927       .  S
C1993      C1994   1.407       .  A
C1993      C1998   1.406       .  A
C1994      C1995   1.401       .  A
C1994     Br2006   1.935       .  S
C1995      C1996   1.411       .  A
C1995     Br2010   1.932       .  S
C1996      C1999   1.479       .  S
C1996      C1997   1.413       .  A
C1997      C1998   1.403       .  A
C1997     Br2005   1.931       .  S
C1998     Br2009   1.931       .  S
C1999      C2000   1.410       .  A
C1999      C2004   1.410       .  A
C2000      C2001   1.402       .  A
C2000     Br2011   1.933       .  S
C2001      C2002   1.410       .  A
C2001     Br2007   1.931       .  S
C2002      C2003   1.413       .  A
C2003      C2004   1.404       .  A
C2003     Br2012   1.930       .  S
C2004     Br2008   1.933       .  S
C2013      C2014   1.411       .  A
C2013      C2018   1.412       .  A
C2014      C2015   1.408       .  A
C2014     Br2026   1.926       .  S
C2015      C2016   1.407       .  A
C2015     Br2030   1.931       .  S
C2016      C2019   1.476       .  S
C2016      C2017   1.405       .  A
C2017      C2018   1.402       .  A
C2017     Br2025   1.932       .  S
C2018     Br2029   1.930       .  S
C2019      C2020   1.402       .  A
C2019      C2024   1.404       .  A
C2020      C2021   1.403       .  A
C2020     Br2031   1.932       .  S
C2021      C2022   1.420       .  A
C2021     Br2027   1.934       .  S
C2022      C2023   1.425       .  A
C2023      C2024   1.407       .  A
C2023     Br2032   1.936       .  S
C2024     Br2028   1.935       .  S
C2033      C2034   1.426       .  A
C2033      C2038   1.420       .  A
C2034      C2035   1.407       .  A
C2034     Br2046   1.936       .  S
C2035      C2036   1.404       .  A
C2035     Br2050   1.934       .  S
C2036      C2039   1.488       .  S
C2036      C2037   1.408       .  A
C2037      C2038   1.411       .  A
C2037     Br2045   1.931       .  S
C2038     Br2049   1.933       .  S
C2039      C2040   1.409       .  A
C2039      C2044   1.407       .  A
C2040      C2041   1.410       .  A
C2040     Br2051   1.931       .  S
C2041      C2042   1.417       .  A
C2041     Br2047   1.934       .  S
C2042      C2043   1.413       .  A
C2043      C2044   1.409       .  A
C2043     Br2052   1.927       .  S
C2044     Br2048   1.931       .  S
C2053      C2054   1.418       .  A
C2053      C2058   1.416       .  A
C2054      C2055   1.416       .  A
C2054     Br2066   1.921       .  S
C2055      C2056   1.409       .  A
C2055     Br2070   1.930       .  S
C2056      C2059   1.495       .  S
C2056      C2057   1.405       .  A
C2057      C2058   1.410       .  A
C2057     Br2065   1.931       .  S
C2058     Br2069   1.921       .  S
C2059      C2060   1.412       .  A
C2059      C2064   1.412       .  A
C2060      C2061   1.411       .  A
C2060     Br2071   1.928       .  S
C2061      C2062   1.409       .  A
C2061     Br2067   1.930       .  S
C2062      C2063   1.410       .  A
C2063      C2064   1.411       .  A
C2063     Br2072   1.930       .  S
C2064     Br2068   1.928       .  S
C2073      C2074   1.423       .  A
C2073      C2078   1.429       .  A
C2074      C2075   1.408       .  A
C2074     Br2086   1.928       .  S
C2075      C2076   1.405       .  A
C2075     Br2090   1.936       .  S
C2076      C2079   1.488       .  S
C2076      C2077   1.404       .  A
C2077      C2078   1.412       .  A
C2077     Br2085   1.933       .  S
C2078     Br2089   1.930       .  S
C2079      C2080   1.407       .  A
C2079      C2084   1.405       .  A
C2080      C2081   1.411       .  A
C2080     Br2091   1.932       .  S
C2081      C2082   1.422       .  A
C2081     Br2087   1.933       .  S
C2082      C2083   1.427       .  A
C2083      C2084   1.408       .  A
C2083     Br2092   1.934       .  S
C2084     Br2088   1.936       .  S
C2093      C2094   1.421       .  A
C2093      C2098   1.426       .  A
C2094      C2095   1.412       .  A
C2094     Br2106   1.913       .  S
C2095      C2096   1.407       .  A
C2095     Br2110   1.936       .  S
C2096      C2099   1.491       .  S
C2096      C2097   1.405       .  A
C2097      C2098   1.408       .  A
C2097     Br2105   1.932       .  S
C2098     Br2109   1.934       .  S
C2099      C2100   1.409       .  A
C2099      C2104   1.409       .  A
C2100      C2101   1.406       .  A
C2100     Br2111   1.935       .  S
C2101      C2102   1.421       .  A
C2101     Br2107   1.935       .  S
C2102      C2103   1.418       .  A
C2103      C2104   1.410       .  A
C2103     Br2112   1.934       .  S
C2104     Br2108   1.929       .  S
O2113      C2124   1.293       .  A
O2113     Eu2149   2.474       .  S
O2114      C2125   1.295       .  A
O2114     Eu2148   2.494       .  S
O2115      C2126   1.291       .  A
O2115     Eu2121   2.465       .  S
O2116      C2127   1.293       .  A
O2116     Eu2121   2.468       .  S
O2117      C2127   1.288       .  A
O2117     Eu2151   2.447       .  S
O2118      C2126   1.287       .  A
O2118     Eu2150   2.446       .  S
O2119      C2125   1.281       .  A
O2119     Eu2121   2.424       .  S
O2120      C2124   1.288       .  A
O2120     Eu2121   2.440       .  S
Eu2121     O2131   2.340       .  S
Eu2121     O2123   2.347       .  S
Eu2121     O2122   2.350       .  S
Eu2121     O2129   2.351       .  S
O2122     Eu2151   2.346       .  S
O2122     Eu2148   2.356       .  S
O2123     Eu2149   2.365       .  S
O2123     Eu2150   2.351       .  S
C2124      C2806   1.491       .  S
C2125      C2617   1.513       .  S
C2126      C2657   1.494       .  S
C2127      C2686   1.484       .  S
H2128      O2129   0.966       .  S
O2129     Eu2150   2.349       .  S
O2129     Eu2148   2.376       .  S
H2130      O2131   0.964       .  S
O2131     Eu2149   2.357       .  S
O2131     Eu2151   2.333       .  S
O2132      C2155   1.295       .  A
O2132     Eu2148   2.484       .  S
O2133      C2156   1.295       .  A
O2133     Eu2149   2.486       .  S
O2134      C2157   1.292       .  A
O2134     Eu2150   2.463       .  S
O2135      C2158   1.284       .  A
O2135     Eu2151   2.421       .  S
O2136      C2159   1.284       .  A
O2136     Eu2151   2.433       .  S
O2137      C2160   1.288       .  A
O2137     Eu2150   2.445       .  S
O2138      C2161   1.289       .  A
O2138     Eu2152   2.453       .  S
O2139      C2162   1.287       .  A
O2139     Eu2152   2.442       .  S
O2140      C2161   1.285       .  A
O2140     Eu2150   2.442       .  S
O2141      C2162   1.287       .  A
O2141     Eu2151   2.441       .  S
O2142      C2157   1.294       .  A
O2142     Eu2148   2.477       .  S
O2143      C2160   1.298       .  A
O2143     Eu2149   2.495       .  S
O2144      C2159   1.296       .  A
O2144     Eu2149   2.490       .  S
O2145      C2158   1.302       .  A
O2145     Eu2148   2.521       .  S
O2146      C2155   1.285       .  A
O2146     Eu2152   2.440       .  S
O2147      C2156   1.288       .  A
O2147     Eu2152   2.445       .  S
Eu2148     O2166   2.360       .  S
Eu2148     O2154   2.365       .  S
Eu2149     O2153   2.348       .  S
Eu2149     O2164   2.363       .  S
Eu2150     O2164   2.353       .  S
Eu2150     O2154   2.343       .  S
Eu2151     O2153   2.346       .  S
Eu2151     O2166   2.352       .  S
Eu2152     O2153   2.348       .  S
Eu2152     O2164   2.339       .  S
Eu2152     O2166   2.361       .  S
Eu2152     O2154   2.335       .  S
C2155      C2637   1.501       .  S
C2156      C2786   1.500       .  S
C2157      C2577   1.478       .  S
C2158      C2606   1.504       .  S
C2159      C2737   1.497       .  S
C2160      C2766   1.478       .  S
C2161      C2726   1.491       .  S
C2162      C2697   1.458       .  S
H2163      O2164   0.967       .  S
H2165      O2166   0.965       .  S
N2167      C2172   1.353       .  A
N2167      H2199   1.040       .  S
N2168      C2176   1.349       .  A
N2169      C2174   1.349       .  A
N2169      H2200   1.040       .  S
N2170      C2178   1.351       .  A
C2171      C2179   1.389       .  A
C2171      C2187   1.417       .  A
C2172      C2188   1.415       .  A
C2172      C2180   1.386       .  A
C2173      C2181   1.386       .  A
C2173      C2190   1.411       .  A
C2174      C2189   1.412       .  A
C2174      C2182   1.388       .  A
C2175      C2187   1.412       .  A
C2175      C2183   1.388       .  A
C2176      C2190   1.406       .  A
C2176      C2184   1.383       .  A
C2177      C2185   1.386       .  A
C2177      C2188   1.416       .  A
C2178      C2186   1.386       .  A
C2178      C2189   1.414       .  A
C2179      H2191   1.082       .  S
C2180      H2192   1.082       .  S
C2181      H2193   1.082       .  S
C2182      H2194   1.082       .  S
C2183      H2195   1.082       .  S
C2184      H2196   1.082       .  S
C2185      H2197   1.082       .  S
C2186      H2198   1.082       .  S
C2187      C2706   1.487       .  S
C2188      C2677   1.500       .  S
C2189      C2666   1.483       .  S
C2190      C2717   1.489       .  S
O2201      C2212   1.290   1_655  A
O2201     Eu2237   2.466   1_655  S
O2202      C2213   1.296       .  A
O2202     Eu2236   2.488       .  S
O2203      C2214   1.285       .  A
O2204      C2215   1.282       .  A
O2204     Eu2209   2.417   1_655  S
O2205      C2215   1.296       .  A
O2205     Eu2239   2.483       .  S
O2206      C2214   1.290       .  A
O2206     Eu2238   2.465       .  S
O2207      C2213   1.293       .  A
O2207     Eu2209   2.473       .  S
O2208      C2212   1.297       .  A
O2208     Eu2209   2.499   1_556  S
Eu2209     O2219   2.339   1_454  S
Eu2209     O2210   2.368   1_455  S
O2210     Eu2239   2.349       .  S
O2210     Eu2236   2.370   1_655  S
O2211     Eu2238   2.361   1_556  S
C2212      C2557   1.516   1_455  S
C2213      C2377   1.486       .  S
C2214      C2417   1.493       .  S
C2215      C2437   1.474   1_554  S
H2216      O2217   0.965       .  S
O2217     Eu2238   2.353       .  S
H2218      O2219   0.966       .  S
O2219     Eu2237   2.362   1_655  S
O2219     Eu2239   2.357   1_556  S
O2220      C2243   1.294       .  A
O2221      C2244   1.293       .  A
O2222      C2245   1.289       .  A
O2222     Eu2238   2.445       .  S
O2223      C2246   1.296       .  A
O2223     Eu2239   2.483       .  S
O2224     Eu2239   2.435   1_556  S
O2225     Eu2238   2.412   1_556  S
O2226      C2249   1.282       .  A
O2227      C2250   1.286       .  A
O2227     Eu2240   2.432       .  S
O2228      C2249   1.296   1_554  A
O2229      C2250   1.291   1_554  A
O2230      C2245   1.295       .  A
O2231      C2248   1.305       .  A
O2232      C2247   1.297       .  A
O2233      C2246   1.297       .  A
O2233     Eu2236   2.493   1_655  S
O2234      C2243   1.284   1_655  A
O2234     Eu2240   2.437   1_554  S
O2235      C2244   1.289       .  A
O2235     Eu2240   2.451       .  S
Eu2240     O2241   2.330       .  S
Eu2240     O2254   2.350   1_556  S
C2243      C2406   1.512       .  S
C2244      C2537   1.482       .  S
C2245      C2337   1.486       .  S
C2246      C2366   1.503       .  S
C2249      C2477   1.472       .  S
C2250      C2457   1.476   1_556  S
H2251      O2252   0.967       .  S
H2253      O2254   0.966       .  S
N2255      C2260   1.351       .  A
N2255      C2259   1.352       .  A
N2255      H2287   1.041       .  S
N2256      C2263   1.347       .  A
N2256      C2264   1.348       .  A
N2257      C2262   1.350       .  A
N2257      C2261   1.351       .  A
N2257      H2288   1.042       .  S
N2258      C2265   1.347       .  A
N2258      C2266   1.348       .  A
C2259      C2267   1.387   1_556  A
C2259      C2275   1.415       .  A
C2260      C2276   1.416       .  A
C2260      C2268   1.388   1_556  A
C2261      C2269   1.388   1_556  A
C2261      C2278   1.415       .  A
C2262      C2277   1.411       .  A
C2262      C2270   1.386   1_556  A
C2263      C2275   1.406       .  A
C2263      C2271   1.385       .  A
C2264      C2278   1.412       .  A
C2264      C2272   1.388       .  A
C2265      C2273   1.388       .  A
C2265      C2276   1.411       .  A
C2266      C2274   1.386       .  A
C2266      C2277   1.409       .  A
C2267      C2268   1.381       .  A
C2267      H2279   1.082       .  S
C2268      H2280   1.082       .  S
C2269      C2270   1.380       .  A
C2269      H2281   1.082       .  S
C2270      H2282   1.082       .  S
C2271      C2272   1.376       .  A
C2271      H2283   1.082       .  S
C2272      H2284   1.082       .  S
C2273      C2274   1.377       .  A
C2273      H2285   1.083       .  S
C2274      H2286   1.082       .  S
C2275      C2466   1.488       .  S
C2276      C2446   1.486       .  S
C2277      C2426   1.485       .  S
C2278      C2486   1.495       .  S
C2289      C2295   1.532       .  S
C2289      C2293   1.551       .  S
C2289      C2397   1.556       .  S
C2290      H2297   1.086       .  S
C2290      C2291   1.359       .  D
C2291      C2746   1.493       .  S
C2292      C2296   1.560       .  S
C2292      C2294   1.542       .  S
C2292      H2298   1.095       .  S
C2293      H2299   1.082       .  S
C2293      C2294   1.370       .  D
C2294      C2757   1.511       .  S
C2295      H2300   1.084       .  S
C2295      C2296   1.375       .  D
C2296      C2386   1.532       .  S
C2301      C2302   1.555       .  S
C2301      C2305   1.530       .  S
C2301      C2797   1.559       .  S
C2302      H2309   1.085       .  S
C2303      C2304   1.551   1_545  S
C2303      C2357   1.529       .  S
C2304      C2308   1.544       .  S
C2304      C2306   1.559   1_565  S
C2304      H2310   1.094       .  S
C2305      H2311   1.085       .  S
C2306      C2346   1.491       .  S
C2307      H2312   1.086       .  S
C2307      C2308   1.375   1_545  D
C2308      C2777   1.517       .  S
C2313      C2314   1.543       .  S
C2313      C2319   1.549       .  S
C2313      C2546   1.561       .  S
C2314      H2321   1.085       .  S
C2314      C2315   1.367       .  D
C2315      C2316   1.554       .  S
C2315      C2586   1.508       .  S
C2316      C2320   1.551       .  S
C2316      H2322   1.109       .  S
C2317      H2323   1.086       .  S
C2317      C2318   1.366       .  D
C2318      C2597   1.507       .  S
C2319      H2324   1.084       .  S
C2319      C2320   1.374       .  D
C2320      C2566   1.508       .  S
C2325      C2326   1.551       .  S
C2325      C2329   1.533       .  S
C2325      C2626   1.559       .  S
C2326      H2333   1.084       .  S
C2327      C2328   1.551   1_545  S
C2327      C2526   1.512   1_545  S
C2328      C2332   1.554       .  S
C2328      C2330   1.553   1_565  S
C2328      H2334   1.109       .  S
C2329      H2335   1.084       .  S
C2330      C2497   1.501       .  S
C2331      H2336   1.086       .  S
C2331      C2332   1.369   1_545  D
C2332      C2646   1.508       .  S
C2337      C2338   1.416       .  A
C2338      C2339   1.405       .  A
C2338     Br2350   1.928       .  S
C2339      C2340   1.405       .  A
C2339     Br2354   1.931       .  S
C2340      C2343   1.487       .  S
C2341      C2342   1.412       .  A
C2341     Br2349   1.930       .  S
C2342     Br2353   1.926       .  S
C2343      C2344   1.406       .  A
C2343      C2348   1.409   1_565  A
C2344      C2345   1.408       .  A
C2344     Br2355   1.930       .  S
C2345      C2346   1.415   1_565  A
C2345     Br2351   1.931       .  S
C2346      C2347   1.416       .  A
C2347      C2348   1.411       .  A
C2348     Br2352   1.930       .  S
C2357      C2358   1.430   1_545  A
C2358      C2359   1.419       .  A
C2358     Br2370   1.928       .  S
C2359      C2360   1.410       .  A
C2359     Br2374   1.936       .  S
C2360      C2363   1.502       .  S
C2361      C2362   1.410       .  A
C2361     Br2369   1.937       .  S
C2362     Br2373   1.916       .  S
C2363      C2364   1.414       .  A
C2364      C2365   1.413       .  A
C2364     Br2375   1.931       .  S
C2365      C2366   1.415       .  A
C2365     Br2371   1.925       .  S
C2367      C2368   1.411       .  A
C2367     Br2376   1.921       .  S
C2368     Br2372   1.935       .  S
C2377      C2378   1.410   1_455  A
C2378      C2379   1.409       .  A
C2378     Br2390   1.928       .  S
C2379      C2380   1.412   1_655  A
C2379     Br2394   1.932       .  S
C2380      C2383   1.498       .  S
C2381      C2382   1.414       .  A
C2381     Br2389   1.930       .  S
C2382     Br2393   1.927       .  S
C2383      C2388   1.403   1_455  A
C2384      C2385   1.421       .  A
C2384     Br2395   1.934       .  S
C2385     Br2391   1.929       .  S
C2386      C2387   1.430       .  A
C2387      C2388   1.404       .  A
C2387     Br2396   1.938       .  S
C2388     Br2392   1.935       .  S
C2397      C2402   1.429       .  A
C2398      C2399   1.410       .  A
C2398     Br2410   1.939       .  S
C2399     Br2414   1.934       .  S
C2400      C2403   1.489       .  S
C2400      C2401   1.404       .  A
C2401      C2402   1.412       .  A
C2401     Br2409   1.935       .  S
C2402     Br2413   1.930       .  S
C2403      C2404   1.402       .  A
C2404      C2405   1.407   1_655  A
C2404     Br2415   1.936       .  S
C2405      C2406   1.433       .  A
C2405     Br2411   1.941       .  S
C2407      C2408   1.413       .  A
C2407     Br2416   1.936       .  S
C2408     Br2412   1.932       .  S
C2417      C2418   1.425       .  A
C2417      C2422   1.424   1_554  A
C2418      C2419   1.402       .  A
C2418     Br2430   1.937       .  S
C2419      C2420   1.402   1_554  A
C2419     Br2434   1.936       .  S
C2420      C2423   1.478       .  S
C2420      C2421   1.405       .  A
C2421      C2422   1.409       .  A
C2421     Br2429   1.932       .  S
C2422     Br2433   1.935       .  S
C2423      C2424   1.408   1_556  A
C2423      C2428   1.408       .  A
C2424      C2425   1.405       .  A
C2424     Br2435   1.931       .  S
C2425      C2426   1.410   1_554  A
C2425     Br2431   1.929       .  S
C2426      C2427   1.411       .  A
C2427      C2428   1.405       .  A
C2427     Br2436   1.929       .  S
C2428     Br2432   1.931       .  S
C2437      C2438   1.415   1_556  A
C2437      C2442   1.407       .  A
C2438      C2439   1.404       .  A
C2438     Br2450   1.927       .  S
C2439      C2440   1.406   1_554  A
C2439     Br2454   1.932       .  S
C2440      C2443   1.474       .  S
C2440      C2441   1.408       .  A
C2441      C2442   1.400       .  A
C2441     Br2449   1.931       .  S
C2442     Br2453   1.927       .  S
C2443      C2444   1.407       .  A
C2443      C2448   1.407   1_556  A
C2444      C2445   1.404       .  A
C2444     Br2455   1.932       .  S
C2445      C2446   1.411       .  A
C2445     Br2451   1.929       .  S
C2446      C2447   1.413   1_556  A
C2447      C2448   1.403       .  A
C2447     Br2456   1.931       .  S
C2448     Br2452   1.933       .  S
C2457      C2458   1.410   1_554  A
C2457      C2462   1.415       .  A
C2458      C2459   1.404       .  A
C2458     Br2470   1.925       .  S
C2459      C2460   1.409   1_556  A
C2459     Br2474   1.930       .  S
C2460      C2463   1.481   1_554  S
C2460      C2461   1.408       .  A
C2461      C2462   1.405       .  A
C2461     Br2469   1.932       .  S
C2462     Br2473   1.932       .  S
C2463      C2464   1.410       .  A
C2463      C2468   1.409   1_556  A
C2464      C2465   1.404       .  A
C2464     Br2475   1.933       .  S
C2465      C2466   1.408       .  A
C2465     Br2471   1.929       .  S
C2466      C2467   1.413   1_556  A
C2467      C2468   1.408       .  A
C2467     Br2476   1.928       .  S
C2468     Br2472   1.931       .  S
C2477      C2478   1.406       .  A
C2477      C2482   1.405   1_556  A
C2478      C2479   1.403       .  A
C2478     Br2490   1.921       .  S
C2479      C2480   1.412       .  A
C2479     Br2494   1.932       .  S
C2480      C2483   1.489       .  S
C2480      C2481   1.417   1_556  A
C2481      C2482   1.408       .  A
C2481     Br2489   1.931       .  S
C2482     Br2493   1.930       .  S
C2483      C2484   1.409   1_556  A
C2483      C2488   1.414       .  A
C2484      C2485   1.402       .  A
C2484     Br2495   1.932       .  S
C2485      C2486   1.414   1_554  A
C2485     Br2491   1.930       .  S
C2486      C2487   1.414       .  A
C2487      C2488   1.407       .  A
C2487     Br2496   1.933       .  S
C2488     Br2492   1.931       .  S
C2497      C2498   1.416   1_545  A
C2498      C2499   1.409       .  A
C2498     Br2510   1.922       .  S
C2499      C2500   1.405       .  A
C2499     Br2514   1.932       .  S
C2500      C2503   1.487       .  S
C2501      C2502   1.409       .  A
C2501     Br2509   1.932       .  S
C2502     Br2513   1.937       .  S
C2503      C2508   1.405       .  A
C2504      C2505   1.408       .  A
C2504     Br2515   1.938       .  S
C2505     Br2511   1.944       .  S
C2506      C2507   1.428       .  A
C2507      C2508   1.413       .  A
C2507     Br2516   1.935   1_565  S
C2508     Br2512   1.933   1_565  S
C2517      C2522   1.412       .  A
C2518      C2519   1.408       .  A
C2518     Br2530   1.926       .  S
C2519     Br2534   1.934       .  S
C2520      C2523   1.495       .  S
C2520      C2521   1.412       .  A
C2521      C2522   1.415       .  A
C2521     Br2529   1.928       .  S
C2522     Br2533   1.924       .  S
C2523      C2528   1.410       .  A
C2524      C2525   1.408       .  A
C2524     Br2535   1.933       .  S
C2525     Br2531   1.922       .  S
C2526      C2527   1.421       .  A
C2527      C2528   1.417       .  A
C2527     Br2536   1.925       .  S
C2528     Br2532   1.931       .  S
C2537      C2538   1.413       .  A
C2538      C2539   1.408       .  A
C2538     Br2550   1.931       .  S
C2539      C2540   1.408       .  A
C2539     Br2554   1.929       .  S
C2540      C2543   1.491       .  S
C2541      C2542   1.410       .  A
C2541     Br2549   1.929       .  S
C2542     Br2553   1.932       .  S
C2543      C2544   1.403       .  A
C2544      C2545   1.413       .  A
C2544     Br2555   1.933       .  S
C2545      C2546   1.432       .  A
C2545     Br2551   1.933       .  S
C2547      C2548   1.412       .  A
C2547     Br2556   1.922       .  S
C2548     Br2552   1.936       .  S
C2557      C2562   1.426       .  A
C2558      C2559   1.415       .  A
C2558     Br2570   1.933       .  S
C2559     Br2574   1.934       .  S
C2560      C2563   1.494       .  S
C2560      C2561   1.404       .  A
C2561      C2562   1.411       .  A
C2561     Br2569   1.935       .  S
C2562     Br2573   1.927       .  S
C2563      C2564   1.407       .  A
C2564      C2565   1.412       .  A
C2564     Br2575   1.932       .  S
C2565      C2566   1.418       .  A
C2565     Br2571   1.919       .  S
C2567      C2568   1.410       .  A
C2567     Br2576   1.926       .  S
C2568     Br2572   1.932       .  S
C2577      C2578   1.411       .  A
C2577      C2582   1.407       .  A
C2578      C2579   1.413       .  A
C2578     Br2590   1.930       .  S
C2579      C2580   1.413       .  A
C2579     Br2594   1.929       .  S
C2580      C2583   1.496       .  S
C2580      C2581   1.412       .  A
C2581      C2582   1.408       .  A
C2581     Br2589   1.929       .  S
C2582     Br2593   1.932       .  S
C2583      C2584   1.408       .  A
C2583      C2588   1.408       .  A
C2584      C2585   1.412       .  A
C2584     Br2595   1.932       .  S
C2585      C2586   1.416       .  A
C2585     Br2591   1.922       .  S
C2586      C2587   1.423       .  A
C2587      C2588   1.414       .  A
C2587     Br2596   1.935       .  S
C2588     Br2592   1.931       .  S
C2597      C2598   1.418       .  A
C2597      C2602   1.421       .  A
C2598      C2599   1.412       .  A
C2598     Br2610   1.921       .  S
C2599      C2600   1.407       .  A
C2599     Br2614   1.933       .  S
C2600      C2603   1.492       .  S
C2600      C2601   1.406       .  A
C2601      C2602   1.410       .  A
C2601     Br2609   1.932       .  S
C2602     Br2613   1.929       .  S
C2603      C2604   1.404       .  A
C2603      C2608   1.409       .  A
C2604      C2605   1.409       .  A
C2604     Br2615   1.936       .  S
C2605      C2606   1.427       .  A
C2605     Br2611   1.934       .  S
C2606      C2607   1.419       .  A
C2607      C2608   1.414       .  A
C2607     Br2616   1.928       .  S
C2608     Br2612   1.930       .  S
C2617      C2618   1.428       .  A
C2617      C2622   1.435       .  A
C2618      C2619   1.414       .  A
C2618     Br2630   1.936       .  S
C2619      C2620   1.406       .  A
C2619     Br2634   1.930       .  S
C2620      C2623   1.489       .  S
C2620      C2621   1.403       .  A
C2621      C2622   1.405       .  A
C2621     Br2629   1.942       .  S
C2622     Br2633   1.945       .  S
C2623      C2624   1.405       .  A
C2623      C2628   1.403       .  A
C2624      C2625   1.411       .  A
C2624     Br2635   1.936       .  S
C2625      C2626   1.431       .  A
C2625     Br2631   1.934       .  S
C2626      C2627   1.423       .  A
C2627      C2628   1.410       .  A
C2627     Br2636   1.919       .  S
C2628     Br2632   1.935       .  S
C2637      C2638   1.428       .  A
C2637      C2642   1.422       .  A
C2638      C2639   1.407       .  A
C2638     Br2650   1.941       .  S
C2639      C2640   1.404       .  A
C2639     Br2654   1.936       .  S
C2640      C2643   1.491       .  S
C2640      C2641   1.408       .  A
C2641      C2642   1.414       .  A
C2641     Br2649   1.930       .  S
C2642     Br2653   1.934       .  S
C2643      C2644   1.405       .  A
C2643      C2648   1.407       .  A
C2644      C2645   1.409       .  A
C2644     Br2655   1.934       .  S
C2645      C2646   1.420       .  A
C2645     Br2651   1.926       .  S
C2646      C2647   1.418       .  A
C2647      C2648   1.414       .  A
C2647     Br2656   1.921       .  S
C2648     Br2652   1.932       .  S
C2657      C2658   1.420       .  A
C2657      C2662   1.421       .  A
C2658      C2659   1.408       .  A
C2658     Br2670   1.933       .  S
C2659      C2660   1.408       .  A
C2659     Br2674   1.933       .  S
C2660      C2663   1.488       .  S
C2660      C2661   1.409       .  A
C2661      C2662   1.409       .  A
C2661     Br2669   1.934       .  S
C2662     Br2673   1.936       .  S
C2663      C2664   1.412       .  A
C2663      C2668   1.414       .  A
C2664      C2665   1.404       .  A
C2664     Br2675   1.930       .  S
C2665      C2666   1.407       .  A
C2665     Br2671   1.932       .  S
C2666      C2667   1.408       .  A
C2667      C2668   1.407       .  A
C2667     Br2676   1.930       .  S
C2668     Br2672   1.930       .  S
C2677      C2678   1.414       .  A
C2677      C2682   1.413       .  A
C2678      C2679   1.411       .  A
C2678     Br2690   1.928       .  S
C2679      C2680   1.410       .  A
C2679     Br2694   1.930       .  S
C2680      C2683   1.491       .  S
C2680      C2681   1.410       .  A
C2681      C2682   1.409       .  A
C2681     Br2689   1.931       .  S
C2682     Br2693   1.930       .  S
C2683      C2684   1.411       .  A
C2683      C2688   1.410       .  A
C2684      C2685   1.410       .  A
C2684     Br2695   1.931       .  S
C2685      C2686   1.415       .  A
C2685     Br2691   1.931       .  S
C2686      C2687   1.411       .  A
C2687      C2688   1.408       .  A
C2687     Br2696   1.932       .  S
C2688     Br2692   1.927       .  S
C2697      C2698   1.407       .  A
C2697      C2702   1.406       .  A
C2698      C2699   1.401       .  A
C2698     Br2710   1.935       .  S
C2699      C2700   1.411       .  A
C2699     Br2714   1.932       .  S
C2700      C2703   1.479       .  S
C2700      C2701   1.413       .  A
C2701      C2702   1.403       .  A
C2701     Br2709   1.931       .  S
C2702     Br2713   1.931       .  S
C2703      C2704   1.410       .  A
C2703      C2708   1.410       .  A
C2704      C2705   1.403       .  A
C2704     Br2715   1.933       .  S
C2705      C2706   1.410       .  A
C2705     Br2711   1.931       .  S
C2706      C2707   1.413       .  A
C2707      C2708   1.404       .  A
C2707     Br2716   1.930       .  S
C2708     Br2712   1.933       .  S
C2717      C2718   1.412       .  A
C2717      C2722   1.412       .  A
C2718      C2719   1.409       .  A
C2718     Br2730   1.926       .  S
C2719      C2720   1.408       .  A
C2719     Br2734   1.931       .  S
C2720      C2723   1.477       .  S
C2720      C2721   1.405       .  A
C2721      C2722   1.402       .  A
C2721     Br2729   1.932       .  S
C2722     Br2733   1.930       .  S
C2723      C2724   1.403       .  A
C2723      C2728   1.405       .  A
C2724      C2725   1.403       .  A
C2724     Br2735   1.932       .  S
C2725      C2726   1.420       .  A
C2725     Br2731   1.934       .  S
C2726      C2727   1.425       .  A
C2727      C2728   1.407       .  A
C2727     Br2736   1.936       .  S
C2728     Br2732   1.934       .  S
C2737      C2738   1.426       .  A
C2737      C2742   1.420       .  A
C2738      C2739   1.407       .  A
C2738     Br2750   1.936       .  S
C2739      C2740   1.404       .  A
C2739     Br2754   1.934       .  S
C2740      C2743   1.489       .  S
C2740      C2741   1.408       .  A
C2741      C2742   1.411       .  A
C2741     Br2749   1.931       .  S
C2742     Br2753   1.933       .  S
C2743      C2744   1.409       .  A
C2743      C2748   1.407       .  A
C2744      C2745   1.410       .  A
C2744     Br2755   1.931       .  S
C2745      C2746   1.417       .  A
C2745     Br2751   1.934       .  S
C2746      C2747   1.413       .  A
C2747      C2748   1.409       .  A
C2747     Br2756   1.927       .  S
C2748     Br2752   1.931       .  S
C2757      C2758   1.418       .  A
C2757      C2762   1.416       .  A
C2758      C2759   1.416       .  A
C2758     Br2770   1.921       .  S
C2759      C2760   1.409       .  A
C2759     Br2774   1.930       .  S
C2760      C2763   1.494       .  S
C2760      C2761   1.405       .  A
C2761      C2762   1.410       .  A
C2761     Br2769   1.931       .  S
C2762     Br2773   1.920       .  S
C2763      C2764   1.412       .  A
C2763      C2768   1.411       .  A
C2764      C2765   1.411       .  A
C2764     Br2775   1.929       .  S
C2765      C2766   1.409       .  A
C2765     Br2771   1.930       .  S
C2766      C2767   1.410       .  A
C2767      C2768   1.410       .  A
C2767     Br2776   1.930       .  S
C2768     Br2772   1.928       .  S
C2777      C2778   1.423       .  A
C2777      C2782   1.429       .  A
C2778      C2779   1.408       .  A
C2778     Br2790   1.928       .  S
C2779      C2780   1.404       .  A
C2779     Br2794   1.936       .  S
C2780      C2783   1.488       .  S
C2780      C2781   1.404       .  A
C2781      C2782   1.412       .  A
C2781     Br2789   1.933       .  S
C2782     Br2793   1.930       .  S
C2783      C2784   1.407       .  A
C2783      C2788   1.405       .  A
C2784      C2785   1.411       .  A
C2784     Br2795   1.932       .  S
C2785      C2786   1.422       .  A
C2785     Br2791   1.933       .  S
C2786      C2787   1.426       .  A
C2787      C2788   1.408       .  A
C2787     Br2796   1.934       .  S
C2788     Br2792   1.936       .  S
C2797      C2798   1.421       .  A
C2797      C2802   1.426       .  A
C2798      C2799   1.412       .  A
C2798     Br2810   1.913       .  S
C2799      C2800   1.407       .  A
C2799     Br2814   1.936       .  S
C2800      C2803   1.491       .  S
C2800      C2801   1.405       .  A
C2801      C2802   1.408       .  A
C2801     Br2809   1.932       .  S
C2802     Br2813   1.934       .  S
C2803      C2804   1.409       .  A
C2803      C2808   1.409       .  A
C2804      C2805   1.406       .  A
C2804     Br2815   1.935       .  S
C2805      C2806   1.420       .  A
C2805     Br2811   1.935       .  S
C2806      C2807   1.418       .  A
C2807      C2808   1.410       .  A
C2807     Br2816   1.934       .  S
C2808     Br2812   1.929       .  S
