geometry optimzed in LAMMPS
_audit_creation_date              2020-11-30 
_audit_creation_method            'lammps2cif' 
_symmetry_space_group_name_H-M    'P1' 
_symmetry_Int_Tables_number       1 
_symmetry_cell_setting            triclinic 
loop_ 
_symmetry_equiv_pos_as_xyz 
  x,y,z 
_cell_length_a                    81.0994384 
_cell_length_b                    46.65933739288259 
_cell_length_c                    44.77637647138514 
_cell_angle_alpha                 89.9025813808316 
_cell_angle_beta                  89.73458567276492 
_cell_angle_gamma                 90.1129305162516 
loop_ 
_atom_site_label 
_atom_site_type_symbol 
_atom_site_fract_x 
_atom_site_fract_y 
_atom_site_fract_z 
_atom_site_charge 
N1          N  0.00147769  0.03887962  0.76630705    -0.35800
N2          N  0.02719052  0.49554943  0.76102517    -0.56400
N3          N  0.00096356  0.45226961  0.75771317    -0.35800
N4          N  0.97615965  0.49658107  0.76649658    -0.56400
C5          C  0.01485543  0.05590491  0.76994807     0.27800
C6          C  0.98796882  0.05477691  0.77276701     0.27800
C7          C  0.01438575  0.43515387  0.75930720     0.27800
C8          C  0.98755384  0.43573348  0.76341344     0.27800
C9          C  0.03691775  0.01960440  0.76027074     0.36400
C10         C  0.03654596  0.47242756  0.75443140     0.36400
C11         C  0.96635649  0.01682772  0.76676427     0.36400
C12         C  0.96598931  0.47390289  0.76264193     0.36400
C13         C  0.00973039  0.08308043  0.77842052    -0.21100
C14         C  0.99282577  0.08242222  0.77997911    -0.21100
C15         C  0.00940473  0.40727897  0.76546080    -0.21100
C16         C  0.99253784  0.40768984  0.76827652    -0.21100
C17         C  0.05275504  0.01184716  0.75182302    -0.22100
C18         C  0.05274893  0.48083776  0.74954934    -0.22100
C19         C  0.95021947  0.00801478  0.76231084    -0.22100
C20         C  0.94989674  0.48319817  0.75912670    -0.22100
C21         C  0.03151868  0.04815455  0.76458370    -0.17500
C22         C  0.97132892  0.04563785  0.77085084    -0.17500
C23         C  0.97088171  0.44485512  0.76324591    -0.17500
C24         C  0.03097297  0.44364482  0.75440886    -0.17500
H25         H  0.01734879  0.10162661  0.78292253     0.15400
H26         H  0.98502755  0.10042747  0.78560256     0.15400
H27         H  0.01709663  0.38849123  0.76778204     0.15400
H28         H  0.98484097  0.38930174  0.77324541     0.15400
H29         H  0.06304906  0.02589160  0.74686571     0.13700
H30         H  0.06319868  0.46730887  0.74436263     0.13700
H31         H  0.93933566  0.02129544  0.76065882     0.13700
H32         H  0.93898963  0.47022373  0.75575453     0.13700
H33         H  0.00147887  0.01860271  0.75696946     0.27000
H34         H  0.00088366  0.47324151  0.75014475     0.27000
In35       In  0.13336214  0.24653940  0.76400792     1.36900
C36         C  0.11160678  0.20456191  0.77233619     0.78400
O37         O  0.11706331  0.27880899  0.78531627    -0.60000
O38         O  0.11877188  0.27943761  0.73792004    -0.51000
C39         C  0.15507004  0.26692878  0.80290501     0.71100
O40         O  0.14555104  0.24633718  0.80918455    -0.45800
C41         C  0.15259617  0.22530039  0.72099117     0.75800
O42         O  0.12376694  0.20806321  0.78945238    -0.57700
O43         O  0.14629944  0.24994156  0.71941640    -0.47800
O44         O  0.11057145  0.22265920  0.75150551    -0.54100
C45         C  0.11251779  0.29023691  0.76120824     0.85900
O46         O  0.15361635  0.27661049  0.77678211    -0.56000
O47         O  0.14909180  0.21170737  0.74447440    -0.59300
In48       In  0.86988611  0.24451286  0.76045069     1.36900
C49         C  0.89319162  0.28457121  0.76060230     0.78400
O50         O  0.88538422  0.21188766  0.78486806    -0.60000
O51         O  0.88310035  0.20834275  0.73783715    -0.51000
C52         C  0.84758691  0.23293497  0.80236765     0.71100
O53         O  0.85747731  0.25373849  0.80465479    -0.45800
C54         C  0.85038062  0.26294848  0.71642117     0.75800
O55         O  0.88317193  0.28147873  0.78206780    -0.57700
O56         O  0.85506990  0.23724308  0.71829919    -0.47800
O57         O  0.89147204  0.26682084  0.73967575    -0.54100
C58         C  0.88931744  0.19848412  0.76148532     0.85900
O59         O  0.84902262  0.21864521  0.77864651    -0.56000
O60         O  0.85547352  0.27885392  0.73711659    -0.59300
In61       In  0.63031293  0.00050678  0.75087301     1.36900
C62         C  0.61011981  0.46269578  0.75292391     0.78400
O63         O  0.61695209  0.03836561  0.76893925    -0.60000
O64         O  0.61736724  0.03403405  0.72191644    -0.51000
C65         C  0.65168957  0.01479121  0.79336657     0.71100
O66         O  0.63734719  0.00588589  0.79923089    -0.45800
C67         C  0.65226031  0.48217388  0.70815761     0.75800
O68         O  0.62189987  0.46509894  0.77109520    -0.57700
O69         O  0.64676597  0.00301527  0.70993092    -0.47800
O70         O  0.60937523  0.48225674  0.73353111    -0.54100
C71         C  0.61232551  0.04814009  0.74420408     0.85900
O72         O  0.65519293  0.01565932  0.76595210    -0.56000
O73         O  0.64619470  0.46795469  0.72946719    -0.59300
N74         N  0.49935969  0.29663221  0.73657233    -0.35800
N75         N  0.52642443  0.25589955  0.73450978    -0.56400
N76         N  0.50256600  0.20923896  0.72930546    -0.35800
N77         N  0.47558944  0.24980098  0.73467160    -0.56400
C78         C  0.51216514  0.31391543  0.74371230     0.27800
C79         C  0.48534477  0.31059179  0.74417448     0.27800
C80         C  0.51663628  0.19441925  0.73425917     0.27800
C81         C  0.48978365  0.19115633  0.73465839     0.27800
C82         C  0.53519786  0.28046157  0.73183733     0.36400
C83         C  0.53689522  0.23423210  0.72800995     0.36400
C84         C  0.46511397  0.27214695  0.73198617     0.36400
C85         C  0.46676811  0.22590757  0.72862846     0.36400
C86         C  0.50620584  0.33915957  0.75599018    -0.21100
C87         C  0.48929128  0.33710247  0.75619800    -0.21100
C88         C  0.51274510  0.16656681  0.74260257    -0.21100
C89         C  0.49583225  0.16455739  0.74300093    -0.21100
C90         C  0.55135534  0.27430393  0.72386873    -0.22100
C91         C  0.55244975  0.24501378  0.72165212    -0.22100
C92         C  0.44953601  0.26241757  0.72436673    -0.22100
C93         C  0.45059573  0.23311703  0.72214345    -0.22100
C94         C  0.52901847  0.30821905  0.73790643    -0.17500
C95         C  0.46910819  0.30090277  0.73863892    -0.17500
C96         C  0.47283867  0.19759926  0.73101383    -0.17500
C97         C  0.53287870  0.20478995  0.72972161    -0.17500
H98         H  0.51330032  0.35731197  0.76379343     0.15400
H99         H  0.48087078  0.35344765  0.76401388     0.15400
H100        H  0.52119862  0.14936360  0.74777342     0.15400
H101        H  0.48880362  0.14556249  0.74868113     0.15400
H102        H  0.56137105  0.28927070  0.72019738     0.13700
H103        H  0.56346240  0.23302098  0.71616962     0.13700
H104        H  0.43850538  0.27506072  0.72118160     0.13700
H105        H  0.44055025  0.21875393  0.71675679     0.13700
H106        H  0.50007104  0.27801917  0.72396631     0.27000
H107        H  0.50179964  0.22943016  0.71962244     0.27000
In108      In  0.36803969  0.00238848  0.75042765     1.36900
C109        C  0.39039514  0.04468990  0.75102440     0.78400
O110        O  0.38294679  0.46181561  0.76727020    -0.60000
O111        O  0.38112024  0.46779020  0.72054640    -0.51000
C112        C  0.34972238  0.48552064  0.79863272     0.71100
O113        O  0.36347584  0.99918006  0.80013636    -0.45800
C114        C  0.34664646  0.02060831  0.70952209     0.75800
O115        O  0.37874722  0.04311344  0.76976570    -0.57700
O116        O  0.35109829  0.99476566  0.71137069    -0.47800
O117        O  0.39071879  0.02448582  0.73240093    -0.54100
C118        C  0.38707900  0.45333949  0.74168000     0.85900
O119        O  0.34419745  0.48564074  0.77239405    -0.56000
O120        O  0.35291120  0.03692875  0.72882182    -0.59300
N121        N  0.25165095  0.37940621  0.05251679    -0.35800
N122        N  0.23310234  0.34736666  0.00883557    -0.56400
N123        N  0.25264654  0.37417686  0.96139975    -0.35800
N124        N  0.27259449  0.40302366  0.00539920    -0.56400
C125        C  0.24369033  0.35995921  0.06984247     0.27800
C126        C  0.26480356  0.38890048  0.06810065     0.27800
C127        C  0.24490686  0.35287532  0.94654494     0.27800
C128        C  0.26573298  0.38245653  0.94461619     0.27800
C129        C  0.22302639  0.34524332  0.03287646     0.36400
C130        C  0.22358086  0.34254473  0.98469924     0.36400
C131        C  0.27706222  0.41963433  0.02869934     0.36400
C132        C  0.27759848  0.41693951  0.98043466     0.36400
C133        C  0.25200167  0.35669662  0.09658854    -0.21100
C134        C  0.26538557  0.37489506  0.09544814    -0.21100
C135        C  0.25329130  0.34726895  0.92012007    -0.21100
C136        C  0.26643386  0.36602620  0.91886758    -0.21100
C137        C  0.20703725  0.33940636  0.02399639    -0.22100
C138        C  0.20737760  0.33778233  0.99341626    -0.22100
C139        C  0.28478471  0.44433612  0.01845678    -0.22100
C140        C  0.28518750  0.44256225  0.98786250    -0.22100
C141        C  0.22845276  0.34701651  0.06268703    -0.17500
C142        C  0.27538050  0.41147327  0.05899346    -0.17500
C143        C  0.27624426  0.40578156  0.95125251    -0.17500
C144        C  0.22967210  0.34050295  0.95521527    -0.17500
H145        H  0.24871452  0.34281078  0.11506920     0.15400
H146        H  0.27442323  0.37763577  0.11291378     0.15400
H147        H  0.25012817  0.33163099  0.90325947     0.15400
H148        H  0.27537931  0.36756643  0.90092326     0.15400
H149        H  0.19622845  0.33681789  0.03800393     0.13700
H150        H  0.19685675  0.33374540  0.97925640     0.13700
H151        H  0.28969231  0.46179493  0.03159117     0.13700
H152        H  0.29046074  0.45834441  0.97285768     0.13700
H153        H  0.24720440  0.38834462  0.03281010     0.27000
H154        H  0.24804658  0.38485189  0.98004747     0.27000
N155        N  0.99787330  0.45353066  0.25339956    -0.35800
N156        N  0.02385674  0.99599797  0.24479331    -0.56400
N157        N  0.99805678  0.03871925  0.23921095    -0.35800
N158        N  0.97301170  0.99365265  0.23626774    -0.56400
C159        C  0.01132585  0.43750428  0.24689499     0.27800
C160        C  0.98436698  0.43738972  0.24768175     0.27800
C161        C  0.01103672  0.05571334  0.24614624     0.27800
C162        C  0.98421228  0.05442996  0.24310392     0.27800
C163        C  0.03313474  0.47381950  0.25863171     0.36400
C164        C  0.03338946  0.01949842  0.24061094     0.36400
C165        C  0.96254997  0.47420701  0.25763113     0.36400
C166        C  0.96322763  0.01666615  0.23183083     0.36400
C167        C  0.00627309  0.41064348  0.23726619    -0.21100
C168        C  0.98930950  0.41058078  0.23774170    -0.21100
C169        C  0.00535594  0.08270728  0.25401843    -0.21100
C170        C  0.98846628  0.08184582  0.25227221    -0.21100
C171        C  0.04912058  0.48147271  0.26613657    -0.22100
C172        C  0.04958167  0.01141782  0.23534407    -0.22100
C173        C  0.94635773  0.48241436  0.26285594    -0.22100
C174        C  0.94765425  0.00783679  0.22309253    -0.22100
C175        C  0.02799928  0.44567526  0.25133224    -0.17500
C176        C  0.96770572  0.44571982  0.25207536    -0.17500
C177        C  0.96791044  0.04545542  0.23682665    -0.17500
C178        C  0.02788073  0.04807870  0.24375784    -0.17500
H179        H  0.01397814  0.39271637  0.23097077     0.15400
H180        H  0.98151531  0.39269519  0.23161739     0.15400
H181        H  0.01257610  0.10132944  0.25999434     0.15400
H182        H  0.98027078  0.09961510  0.25678984     0.15400
H183        H  0.05973504  0.46759270  0.26812188     0.13700
H184        H  0.06011433  0.02526337  0.23161403     0.13700
H185        H  0.93556751  0.46879812  0.26432259     0.13700
H186        H  0.93708895  0.02118662  0.21830094     0.13700
H187        H  0.99789674  0.47317171  0.26405387     0.27000
H188        H  0.99871707  0.01876515  0.22913677     0.27000
In189      In  0.12993042  0.24708682  0.25027600     1.36900
C190        C  0.10839906  0.20424484  0.24468243     0.78400
O191        O  0.14746245  0.21397242  0.26744773    -0.60000
O192        O  0.14326262  0.25059262  0.29440020    -0.51000
C193        C  0.15129073  0.26484740  0.20863230     0.71100
O194        O  0.14236397  0.24293230  0.20546153    -0.45800
C195        C  0.10893774  0.29080946  0.25503208     0.75800
O196        O  0.11693025  0.21344773  0.22309945    -0.57700
O197        O  0.11634957  0.28047537  0.27726514    -0.47800
O198        O  0.11084032  0.21700356  0.26904555    -0.54100
C199        C  0.15055740  0.22689612  0.29144924     0.85900
O200        O  0.14946133  0.27751540  0.23328646    -0.56000
O201        O  0.11228928  0.27883807  0.23058054    -0.59300
In202      In  0.86706822  0.24480656  0.25082352     1.36900
C203        C  0.88783746  0.20080672  0.25137580     0.78400
O204        O  0.85440201  0.25292434  0.20690751    -0.60000
O205        O  0.84790015  0.21548694  0.23117604    -0.51000
C206        C  0.84723167  0.26519609  0.29327045     0.71100
O207        O  0.85319948  0.24025067  0.29472290    -0.45800
C208        C  0.88935249  0.28648940  0.25234131     0.75800
O209        O  0.87860369  0.20672919  0.27329740    -0.57700
O210        O  0.88009060  0.28268933  0.23006561    -0.47800
O211        O  0.88625925  0.21715903  0.22909199    -0.54100
C212        C  0.84564066  0.23059568  0.20819585     0.85900
O213        O  0.85098699  0.27882584  0.26996838    -0.56000
O214        O  0.88752727  0.26846721  0.27308617    -0.59300
In215      In  0.63248106  0.01189280  0.26659600     1.36900
C216        C  0.61352654  0.05837425  0.27360879     0.78400
O217        O  0.65668443  0.02964541  0.25068964    -0.60000
O218        O  0.63945661  0.01568248  0.21812721    -0.51000
C219        C  0.65228521  0.49088550  0.31290882     0.71100
O220        O  0.64754001  0.01573341  0.30885306    -0.45800
C221        C  0.61202025  0.47094677  0.25945287     0.75800
O222        O  0.61700409  0.04180906  0.29494942    -0.57700
O223        O  0.62520358  0.47322322  0.24463258    -0.47800
O224        O  0.62027509  0.05184356  0.24920000    -0.54100
C225        C  0.65337220  0.02666563  0.22337168     0.85900
O226        O  0.64631308  0.47591852  0.29221935    -0.56000
O227        O  0.60972557  0.49038374  0.27845889    -0.59300
In228      In  0.36990447  0.01157298  0.25007323     1.36900
C229        C  0.39164674  0.05452069  0.24631941     0.78400
O230        O  0.35396657  0.00562704  0.29152882    -0.60000
O231        O  0.35409802  0.04612012  0.26996536    -0.51000
C232        C  0.34963862  0.49928637  0.20373108     0.71100
O233        O  0.36451228  0.00708869  0.20100808    -0.45800
C234        C  0.38861306  0.46720265  0.25562318     0.75800
O235        O  0.37966638  0.05236048  0.22855353    -0.57700
O236        O  0.38120921  0.47899585  0.27713746    -0.47800
O237        O  0.39261602  0.03451515  0.26511238    -0.54100
C238        C  0.34870422  0.03110091  0.29130413     0.85900
O239        O  0.34556108  0.49655504  0.23076755    -0.56000
O240        O  0.38584912  0.47848963  0.23062643    -0.59300
N241        N  0.50032371  0.30714165  0.26349232    -0.35800
N242        N  0.52695678  0.26518712  0.26294360    -0.56400
N243        N  0.50254298  0.21934441  0.26824396    -0.35800
N244        N  0.47599881  0.26131407  0.26493224    -0.56400
C245        C  0.51339263  0.32419263  0.25703087     0.27800
C246        C  0.48649858  0.32216356  0.25705125     0.27800
C247        C  0.51635994  0.20425619  0.26176540     0.27800
C248        C  0.48948592  0.20215298  0.26230212     0.27800
C249        C  0.53596501  0.28927522  0.26703925     0.36400
C250        C  0.53707542  0.24291973  0.26896301     0.36400
C251        C  0.46573726  0.28397292  0.26799284     0.36400
C252        C  0.46690960  0.23752634  0.27040876     0.36400
C253        C  0.50779166  0.35038864  0.24650632    -0.21100
C254        C  0.49088336  0.34923162  0.24682732    -0.21100
C255        C  0.51205527  0.17718735  0.25174776    -0.21100
C256        C  0.49511938  0.17588470  0.25198202    -0.21100
C257        C  0.55187440  0.28220155  0.27556604    -0.22100
C258        C  0.55259412  0.25284218  0.27660128    -0.22100
C259        C  0.45002489  0.27451832  0.27535630    -0.22100
C260        C  0.45079172  0.24512921  0.27710128    -0.22100
C261        C  0.53018844  0.31749390  0.26214291    -0.17500
C262        C  0.47004606  0.31278026  0.26169746    -0.17500
C263        C  0.47265435  0.20905658  0.26701267    -0.17500
C264        C  0.53275747  0.21374190  0.26599595    -0.17500
H265        H  0.51510492  0.36864154  0.23950334     0.15400
H266        H  0.48280801  0.36661163  0.24051752     0.15400
H267        H  0.52026977  0.16013608  0.24490530     0.15400
H268        H  0.48779722  0.15762134  0.24522113     0.15400
H269        H  0.56194535  0.29659572  0.28065148     0.13700
H270        H  0.56330480  0.24023909  0.28240787     0.13700
H271        H  0.43908576  0.28738784  0.27868285     0.13700
H272        H  0.44055843  0.23098202  0.28214063     0.13700
H273        H  0.50081925  0.28769977  0.27473006     0.27000
H274        H  0.50211199  0.23899457  0.27911640     0.27000
N275        N  0.74503757  0.12688672  0.95766889    -0.35800
N276        N  0.72432001  0.10265709  0.00380017    -0.56400
N277        N  0.74522090  0.12806561  0.04871140    -0.35800
N278        N  0.76499315  0.15573672  0.00286640    -0.56400
C279        C  0.73151972  0.11913144  0.94195125     0.27800
C280        C  0.75314898  0.14694911  0.94146289     0.27800
C281        C  0.73161298  0.12118422  0.06480996     0.27800
C282        C  0.75362454  0.14798395  0.06440668     0.27800
C283        C  0.71940203  0.08718614  0.98001310     0.36400
C284        C  0.71941557  0.08798688  0.02827442     0.36400
C285        C  0.77464912  0.15898598  0.97841639     0.36400
C286        C  0.77492804  0.15921214  0.02678382     0.36400
C287        C  0.73092679  0.13472804  0.91559579    -0.21100
C288        C  0.74461616  0.15226553  0.91526273    -0.21100
C289        C  0.73119694  0.13749100  0.09070189    -0.21100
C290        C  0.74520548  0.15419781  0.09057835    -0.21100
C291        C  0.71167083  0.06220168  0.98936160    -0.22100
C292        C  0.71171032  0.06267809  0.02002376    -0.22100
C293        C  0.79078657  0.16445899  0.98686197    -0.22100
C294        C  0.79094704  0.16467619  0.01754207    -0.22100
C295        C  0.72038283  0.09712421  0.95032684    -0.17500
C296        C  0.76875306  0.15848189  0.94874734    -0.17500
C297        C  0.76937749  0.15858780  0.05670819    -0.17500
C298        C  0.72045082  0.09890963  0.05755349    -0.17500
H299        H  0.72168008  0.13351202  0.89829992     0.15400
H300        H  0.74797246  0.16709350  0.89763434     0.15400
H301        H  0.72192373  0.13716498  0.10814135     0.15400
H302        H  0.74885603  0.16906772  0.10786843     0.15400
H303        H  0.70640178  0.04553891  0.97557541     0.13700
H304        H  0.70651754  0.04638731  0.03450772     0.13700
H305        H  0.80140022  0.16769934  0.97252193     0.13700
H306        H  0.80166163  0.16819113  0.03137677     0.13700
H307        H  0.74955023  0.11666753  0.97663778     0.27000
H308        H  0.74964458  0.11718082  0.03003916     0.27000
N309        N  0.22790956  0.15485137  0.50349395    -0.35800
N310        N  0.24846028  0.12784725  0.45727670    -0.56400
N311        N  0.27049135  0.10710316  0.50367224    -0.35800
N312        N  0.24895073  0.13147002  0.54992005    -0.56400
C313        C  0.21820617  0.15743242  0.47913716     0.27800
C314        C  0.21808374  0.15809787  0.52781962     0.27800
C315        C  0.27755006  0.09427857  0.47960771     0.27800
C316        C  0.27813320  0.09722158  0.52848937     0.27800
C317        C  0.23864700  0.14418871  0.43978663     0.36400
C318        C  0.26081261  0.11796718  0.43959982     0.36400
C319        C  0.23872509  0.14733088  0.56717252     0.39600
C320        C  0.26179435  0.12384513  0.56735298     0.36400
C321        C  0.20204634  0.16223660  0.48809711    -0.21100
C322        C  0.20197412  0.16268610  0.51878748    -0.21100
C323        C  0.29008973  0.07642646  0.48941056    -0.21100
C324        C  0.29043956  0.07824829  0.52004133    -0.21100
C325        C  0.24477308  0.14462560  0.41086316    -0.22100
C326        C  0.25851672  0.12759550  0.41058112    -0.22100
C327        C  0.24502125  0.14962556  0.59577591    -0.22100
C328        C  0.25953910  0.13459611  0.59596544    -0.22100
C329        C  0.22366288  0.15713771  0.44905829    -0.17500
C330        C  0.22336803  0.15846402  0.55788890    -0.17500
C331        C  0.27508679  0.10607616  0.55840203    -0.17500
C332        C  0.27388794  0.09982496  0.44902619    -0.17500
H333        H  0.19137810  0.16510443  0.47397978     0.15400
H334        H  0.19126295  0.16604959  0.53285107     0.15400
H335        H  0.29857077  0.06399347  0.47602236     0.15400
H336        H  0.29912704  0.06730606  0.53432126     0.15400
H337        H  0.23983715  0.15578610  0.39170962     0.13700
H338        H  0.26590883  0.12315249  0.39100985     0.13700
H339        H  0.23969620  0.16079655  0.61464460     0.13700
H340        H  0.26744050  0.13183277  0.61514126     0.13700
H341        H  0.24072233  0.15443033  0.50334352     0.27000
H342        H  0.26197920  0.12353845  0.50316498     0.27000
N343        N  0.77525079  0.34972461  0.50976799    -0.35800
N344        N  0.75572596  0.38020188  0.55417556    -0.56400
N345        N  0.73367473  0.39979878  0.50663575    -0.35800
N346        N  0.75325236  0.36972256  0.46209071    -0.56400
C347        C  0.78516820  0.34678881  0.53395169     0.27800
C348        C  0.78418622  0.34191666  0.48540955     0.27800
C349        C  0.72466403  0.40693316  0.53109010     0.27800
C350        C  0.72353805  0.40198240  0.48272450     0.27800
C351        C  0.76736550  0.36986720  0.57284549     0.36400
C352        C  0.74509473  0.39546858  0.57115514     0.36400
C353        C  0.76395776  0.35460113  0.44504664     0.36400
C354        C  0.74160377  0.38030192  0.44348885     0.36400
C355        C  0.80044973  0.33674450  0.52484071    -0.21100
C356        C  0.79987973  0.33387387  0.49438381    -0.21100
C357        C  0.70870678  0.41364501  0.52255653    -0.21100
C358        C  0.70800891  0.41058915  0.49218410    -0.21100
C359        C  0.76404597  0.37862978  0.60183046    -0.22100
C360        C  0.75018516  0.39526315  0.60066293    -0.22100
C361        C  0.75880143  0.35507133  0.41553738    -0.22100
C362        C  0.74495892  0.37183465  0.41446172    -0.22100
C363        C  0.78114015  0.35318502  0.56412351    -0.17500
C364        C  0.77878265  0.34166434  0.45521440    -0.17500
C365        C  0.72766764  0.39657619  0.45243759    -0.17500
C366        C  0.73028000  0.40804449  0.56099221    -0.17500
H367        H  0.81111592  0.33260329  0.53862269     0.15400
H368        H  0.81006970  0.32709905  0.48042830     0.15400
H369        H  0.69848350  0.41976396  0.53678055     0.15400
H370        H  0.69713205  0.41381516  0.47868207     0.15400
H371        H  0.77080731  0.37371503  0.62192288     0.13700
H372        H  0.74437940  0.40548210  0.61964492     0.13700
H373        H  0.76444665  0.34476213  0.39646621     0.13700
H374        H  0.73816081  0.37683235  0.39443608     0.13700
H375        H  0.76276612  0.35450594  0.51010173     0.27000
H376        H  0.74631679  0.39635631  0.50601878     0.27000
C377        C  0.32144039  0.07261796  0.34678212     0.16800
C378        C  0.31367647  0.09375939  0.36402729    -0.32300
C379        C  0.30286144  0.08477772  0.38672854     0.21200
C380        C  0.29950220  0.05600172  0.39154229     0.03400
C381        C  0.30742351  0.03474234  0.37444464    -0.22000
C382        C  0.31862337  0.04374128  0.35218693     0.12500
S383        S  0.33504718  0.07939062  0.31842973    -0.05700
C384        C  0.33738750  0.04295150  0.31408391    -0.09100
C385        C  0.32791499  0.02652676  0.33363645    -0.25700
S386        S  0.28551478  0.04982904  0.41964614    -0.02900
C387        C  0.28460136  0.08641197  0.42558186    -0.16400
C388        C  0.29460007  0.10220585  0.40640440    -0.14400
H389        H  0.31608259  0.11628965  0.36008034     0.21000
H390        H  0.30505798  0.01221388  0.37846141     0.17000
H391        H  0.32775702  0.00332511  0.33410281     0.19500
H392        H  0.29567384  0.12534120  0.40676311     0.12900
C393        C  0.43783256  0.37009704  0.24148640     0.16800
C394        C  0.42781949  0.39033505  0.22716250    -0.32300
C395        C  0.41809826  0.40827368  0.24515440     0.21200
C396        C  0.41829594  0.40615789  0.27604517     0.03400
C397        C  0.42846111  0.38613986  0.29038237    -0.22000
C398        C  0.43821997  0.36822880  0.27240062     0.12500
S399        S  0.45053579  0.34642977  0.22363979    -0.05700
C400        C  0.45665596  0.33420345  0.25819794    -0.09100
C401        C  0.44906496  0.34769173  0.28213780    -0.25700
S402        S  0.40550274  0.42978162  0.29383711    -0.02900
C403        C  0.39993081  0.44279987  0.25931344    -0.16400
C404        C  0.40763514  0.42935276  0.23543046    -0.14400
H405        H  0.42762772  0.39204455  0.20304367     0.21000
H406        H  0.42876652  0.38461843  0.31450620     0.17000
H407        H  0.45158818  0.34302991  0.30536678     0.19500
H408        H  0.40576378  0.43485706  0.21218430     0.12900
C409        C  0.41870979  0.12208905  0.23933636     0.16800
C410        C  0.42602886  0.14845083  0.23185448    -0.32300
C411        C  0.43921925  0.15802710  0.24949726     0.21200
C412        C  0.44486736  0.14211252  0.27354237     0.03400
C413        C  0.43754720  0.11581898  0.28103426    -0.22000
C414        C  0.42440798  0.10623766  0.26337272     0.12500
S415        S  0.40245137  0.10668752  0.22101883    -0.05700
C416        C  0.40338888  0.07866513  0.24609014    -0.09100
C417        C  0.41570879  0.08132556  0.26727174    -0.25700
S418        S  0.46117337  0.15714676  0.29184236    -0.02900
C419        C  0.46043487  0.18521309  0.26678086    -0.16400
C420        C  0.44809811  0.18282910  0.24554993    -0.14400
H421        H  0.42165872  0.16092769  0.21308944     0.21000
H422        H  0.44193526  0.10331341  0.29977024     0.17000
H423        H  0.41802723  0.06598276  0.28493277     0.19500
H424        H  0.44596405  0.19822590  0.22787119     0.12900
C425        C  0.68192102  0.46915907  0.37572478     0.16800
C426        C  0.69363370  0.46847988  0.39865897    -0.32300
C427        C  0.70046572  0.44182932  0.40621901     0.21200
C428        C  0.69553556  0.41679479  0.39220913     0.03400
C429        C  0.68379328  0.41745568  0.36926736    -0.22000
C430        C  0.67726109  0.44423365  0.36117642     0.12500
S431        S  0.67277815  0.49954727  0.36234271    -0.05700
C432        C  0.66285489  0.47860861  0.33637150    -0.09100
C433        C  0.66630769  0.44953276  0.33854106    -0.25700
S434        S  0.70499202  0.38655853  0.40536283    -0.02900
C435        C  0.71617678  0.40799827  0.42929985    -0.16400
C436        C  0.71233357  0.43694567  0.42732948    -0.14400
H437        H  0.69745858  0.48795463  0.40979982     0.21000
H438        H  0.68007619  0.39801063  0.35795508     0.17000
H439        H  0.66131986  0.43321899  0.32394609     0.19500
H440        H  0.71779647  0.45348581  0.44106825     0.12900
C441        C  0.68663835  0.06978638  0.11047556     0.16800
C442        C  0.67205095  0.05955967  0.12360586    -0.32300
C443        C  0.67269114  0.05104731  0.15362523     0.21200
C444        C  0.68714083  0.05305919  0.16995862     0.03400
C445        C  0.70178870  0.06274530  0.15664349    -0.22000
C446        C  0.70120641  0.07079411  0.12650885     0.12500
S447        S  0.68835218  0.08186873  0.07464890    -0.05700
C448        C  0.70911432  0.08739015  0.08092108    -0.09100
C449        C  0.71417339  0.08048047  0.10959538    -0.25700
S450        S  0.68515829  0.04333120  0.20654257    -0.02900
C451        C  0.66473731  0.03591794  0.19963024    -0.16400
C452        C  0.65981022  0.04080932  0.17047191    -0.14400
H453        H  0.66068969  0.05845880  0.11104235     0.21000
H454        H  0.71311992  0.06411151  0.16926733     0.17000
H455        H  0.72669560  0.08247844  0.11764087     0.19500
H456        H  0.64738073  0.03780113  0.16228916     0.12900
C457        C  0.58049820  0.11561357  0.28902292     0.16800
C458        C  0.56726524  0.13190964  0.30004334    -0.32300
C459        C  0.56139760  0.15441712  0.28213522     0.21200
C460        C  0.56852899  0.16065849  0.25465719     0.03400
C461        C  0.58167109  0.14426943  0.24358574    -0.22000
C462        C  0.58739428  0.12156712  0.26129857     0.12500
S463        S  0.58919138  0.08696904  0.30690422    -0.05700
C464        C  0.60204152  0.08269137  0.27647523    -0.09100
C465        C  0.59969873  0.10268293  0.25393233    -0.25700
S466        S  0.55972613  0.18886525  0.23632986    -0.02900
C467        C  0.54614565  0.19208302  0.26578502    -0.16400
C468        C  0.54843648  0.17232028  0.28856646    -0.14400
H469        H  0.56168840  0.12708604  0.32149347     0.21000
H470        H  0.58710467  0.14885270  0.22195868     0.17000
H471        H  0.60646267  0.10307871  0.23302133     0.19500
H472        H  0.54097122  0.17112818  0.30864473     0.12900
C473        C  0.55699280  0.38467479  0.27254714     0.16800
C474        C  0.56345967  0.41115954  0.28106504    -0.32300
C475        C  0.57809118  0.42013748  0.26733205     0.21200
C476        C  0.58613974  0.40344766  0.24623581     0.03400
C477        C  0.57959583  0.37689428  0.23753275    -0.22000
C478        C  0.56476382  0.36804970  0.25104899     0.12500
S479        S  0.53936888  0.37022832  0.28685023    -0.05700
C480        C  0.54215660  0.34161226  0.26313489    -0.09100
C481        C  0.55621216  0.34328777  0.24536969    -0.25700
S482        S  0.60406264  0.41820517  0.23296305    -0.02900
C483        C  0.60043546  0.44709470  0.25597970    -0.16400
C484        C  0.58617382  0.44519882  0.27286865    -0.14400
H485        H  0.55733314  0.42424334  0.29769184     0.21000
H486        H  0.58575286  0.36377301  0.22098407     0.17000
H487        H  0.55989494  0.32729494  0.22917315     0.19500
H488        H  0.58207464  0.46113971  0.28880733     0.12900
C489        C  0.80594591  0.29653516  0.40201328     0.16800
C490        C  0.81459943  0.27479243  0.38704540    -0.32300
C491        C  0.82245276  0.28194001  0.36002550     0.21200
C492        C  0.82170754  0.30952462  0.34850112     0.03400
C493        C  0.81328211  0.33131600  0.36366026    -0.22000
C494        C  0.80546756  0.32418031  0.39064506     0.12500
S495        S  0.79500056  0.29202916  0.43438871    -0.05700
C496        C  0.78976995  0.32783403  0.43265412    -0.09100
C497        C  0.79643952  0.34231271  0.40833324    -0.25700
S498        S  0.83166588  0.31388279  0.31522046    -0.02900
C499        C  0.83702685  0.27822116  0.31680434    -0.16400
C500        C  0.83134620  0.26382038  0.34194585    -0.14400
H501        H  0.81504072  0.25320167  0.39590491     0.21000
H502        H  0.81271662  0.35284996  0.35466320     0.17000
H503        H  0.79447937  0.36481291  0.40357560     0.19500
H504        H  0.83356208  0.24139172  0.34667265     0.12900
C505        C  0.81647584  0.21902645  0.14178855     0.16800
C506        C  0.80748253  0.22083007  0.11513054    -0.32300
C507        C  0.79772426  0.19717775  0.10715214     0.21200
C508        C  0.79688818  0.17291396  0.12503480     0.03400
C509        C  0.80574563  0.17121820  0.15177771    -0.22000
C510        C  0.81556303  0.19476323  0.15965745     0.12500
S511        S  0.82950011  0.24491256  0.15492890    -0.05700
C512        C  0.83378746  0.22275329  0.18472556    -0.09100
C513        C  0.82539114  0.19684506  0.18440937    -0.25700
S514        S  0.78459718  0.14634187  0.11137597    -0.02900
C515        C  0.78045307  0.16807923  0.08116393    -0.16400
C516        C  0.78828112  0.19455635  0.08190765    -0.14400
H517        H  0.80820558  0.23969825  0.10106869     0.21000
H518        H  0.80514576  0.15223246  0.16568885     0.17000
H519        H  0.82662138  0.18021820  0.20115468     0.19500
H520        H  0.78710095  0.21094122  0.06489896     0.12900
C521        C  0.17961989  0.18591884  0.34348785     0.16800
C522        C  0.18957382  0.16542437  0.35741838    -0.32300
C523        C  0.19727622  0.17315350  0.38416148     0.21200
C524        C  0.19536454  0.20024353  0.39636078     0.03400
C525        C  0.18533285  0.22077474  0.38246770    -0.22000
C526        C  0.17744260  0.21290041  0.35584162     0.12500
S527        S  0.16922361  0.18048531  0.31097724    -0.05700
C528        C  0.16171921  0.21484594  0.31401709    -0.09100
C529        C  0.16705487  0.22961319  0.33906431    -0.25700
S530        S  0.20590202  0.20532652  0.42888944    -0.02900
C531        C  0.21278826  0.17042295  0.42617633    -0.16400
C532        C  0.20711770  0.15590591  0.40125177    -0.14400
H533        H  0.19117660  0.14428946  0.34789092     0.21000
H534        H  0.18369016  0.24187420  0.39205262     0.17000
H535        H  0.16360495  0.25138810  0.34457236     0.19500
H536        H  0.21001578  0.13382689  0.39600916     0.12900
C537        C  0.06072006  0.38814790  0.23457521     0.16800
C538        C  0.07155651  0.36830079  0.22160468    -0.32300
C539        C  0.08020357  0.34993424  0.24080751     0.21200
C540        C  0.07839724  0.35156139  0.27157371     0.03400
C541        C  0.06753043  0.37133087  0.28452773    -0.22000
C542        C  0.05867515  0.38935490  0.26532830     0.12500
S543        S  0.04882518  0.41196878  0.21521102    -0.05700
C544        C  0.04082529  0.42318510  0.24891867    -0.09100
C545        C  0.04722369  0.40938675  0.27366703    -0.25700
S546        S  0.09010243  0.32753707  0.29099538    -0.02900
C547        C  0.09727190  0.31481740  0.25728604    -0.16400
C548        C  0.09095394  0.32874445  0.23247723    -0.14400
H549        H  0.07305817  0.36702793  0.19759971     0.21000
H550        H  0.06592450  0.37243036  0.30852009     0.17000
H551        H  0.04358585  0.41374333  0.29650846     0.19500
H552        H  0.09405533  0.32359733  0.20955540     0.12900
C553        C  0.07849158  0.14302432  0.22609928     0.16800
C554        C  0.06871676  0.12199047  0.21245259    -0.32300
C555        C  0.05863784  0.10502407  0.23096115     0.21200
C556        C  0.05832621  0.10881566  0.26168953     0.03400
C557        C  0.06795592  0.13002815  0.27527304    -0.22000
C558        C  0.07800679  0.14698579  0.25678359     0.12500
S559        S  0.09175184  0.16551946  0.20770704    -0.05700
C560        C  0.09654458  0.18055617  0.24169432    -0.09100
C561        C  0.08829622  0.16857639  0.26585090    -0.25700
S562        S  0.04549961  0.08585528  0.28035344    -0.02900
C563        C  0.04035636  0.07117766  0.24639437    -0.16400
C564        C  0.04826046  0.08344787  0.22201007    -0.14400
H565        H  0.06900525  0.11891006  0.18849181     0.21000
H566        H  0.06767294  0.13310971  0.29923593     0.17000
H567        H  0.08980603  0.17523516  0.28883894     0.19500
H568        H  0.04642258  0.07698402  0.19904862     0.12900
C569        C  0.93864287  0.10883917  0.22500832     0.16800
C570        C  0.93028418  0.13307319  0.21449600    -0.32300
C571        C  0.91899562  0.14627342  0.23387499     0.21200
C572        C  0.91624481  0.13598850  0.26255360     0.03400
C573        C  0.92463251  0.11178219  0.27309585    -0.22000
C574        C  0.93579340  0.09839975  0.25361287     0.12500
S575        S  0.95303412  0.09011191  0.20513280    -0.05700
C576        C  0.95508124  0.06787902  0.23557256    -0.09100
C577        C  0.94518288  0.07474675  0.25977744    -0.25700
S578        S  0.90197819  0.15496419  0.28251202    -0.02900
C579        C  0.89955914  0.17677997  0.25178231    -0.16400
C580        C  0.90947295  0.16973770  0.22758731    -0.14400
H581        H  0.93246437  0.14125511  0.19217448     0.21000
H582        H  0.92250937  0.10367570  0.29546316     0.17000
H583        H  0.94523157  0.06350055  0.28095176     0.19500
H584        H  0.90960159  0.18104499  0.20644298     0.12900
C585        C  0.93286655  0.39156168  0.23722630     0.16800
C586        C  0.91995933  0.37513569  0.22538185    -0.32300
C587        C  0.91479032  0.35095261  0.24160498     0.21200
C588        C  0.92193203  0.34379663  0.26870054     0.03400
C589        C  0.93477693  0.36025196  0.28058263    -0.22000
C590        C  0.94015203  0.38407769  0.26410325     0.12500
S591        S  0.94127076  0.42119576  0.22059454    -0.05700
C592        C  0.95482018  0.42324786  0.25003715    -0.09100
C593        C  0.95280960  0.40214800  0.27152071    -0.25700
S594        S  0.91403294  0.31364623  0.28492173    -0.02900
C595        C  0.90120719  0.31021942  0.25459977    -0.16400
C596        C  0.90284858  0.33168848  0.23335459    -0.14400
H597        H  0.91436272  0.38071443  0.20425112     0.21000
H598        H  0.94049067  0.35449498  0.30156034     0.17000
H599        H  0.96027347  0.40015359  0.29140659     0.19500
H600        H  0.89575280  0.33304505  0.21297369     0.12900
C601        C  0.18030639  0.28166965  0.14273400     0.16800
C602        C  0.18986991  0.28133835  0.11652598    -0.32300
C603        C  0.19993089  0.30524068  0.11063374     0.21200
C604        C  0.20030078  0.32855207  0.12977548     0.03400
C605        C  0.19089712  0.32873293  0.15611548    -0.22000
C606        C  0.18099322  0.30472962  0.16219322     0.12500
S607        S  0.16715882  0.25497896  0.15384120    -0.05700
C608        C  0.16284125  0.27483098  0.18534121    -0.09100
C609        C  0.17107217  0.30085236  0.18676784    -0.25700
S610        S  0.21271447  0.35598225  0.11806475    -0.02900
C611        C  0.21769774  0.33577209  0.08712013    -0.16400
C612        C  0.21002644  0.30911732  0.08627728    -0.14400
H613        H  0.18944337  0.26330500  0.10135500     0.21000
H614        H  0.19123934  0.34685688  0.17117484     0.17000
H615        H  0.16980741  0.31617197  0.20477316     0.19500
H616        H  0.21155553  0.29363613  0.06848883     0.12900
C617        C  0.29579758  0.45138992  0.12457281     0.16800
C618        C  0.29960063  0.46470111  0.15172809    -0.32300
C619        C  0.31605403  0.47275973  0.15649871     0.21200
C620        C  0.32810619  0.46842157  0.13489982     0.03400
C621        C  0.32431788  0.45493057  0.10784398    -0.22000
C622        C  0.30795643  0.44624810  0.10339993     0.12500
S623        S  0.27666416  0.43953545  0.11470536    -0.05700
C624        C  0.28522191  0.42673895  0.08199466    -0.09100
C625        C  0.30200949  0.43187530  0.07909086    -0.25700
S626        S  0.34734740  0.47956335  0.14503706    -0.02900
C627        C  0.33917920  0.48935344  0.17907659    -0.16400
C628        C  0.32237218  0.48459697  0.18202814    -0.14400
H629        H  0.29020439  0.46820434  0.16858427     0.21000
H630        H  0.33376291  0.45095081  0.09119351     0.17000
H631        H  0.30948064  0.42524410  0.06022867     0.19500
H632        H  0.31523620  0.48907125  0.20197949     0.12900
C633        C  0.32918291  0.45599765  0.86960372     0.16800
C634        C  0.32559511  0.44275935  0.89701967    -0.32300
C635        C  0.30905914  0.43595885  0.90317747     0.21200
C636        C  0.29660021  0.44247961  0.88318833     0.03400
C637        C  0.30017972  0.45579718  0.85582765    -0.22000
C638        C  0.31674261  0.46209876  0.84942606     0.12500
S639        S  0.34852508  0.46482301  0.85731500    -0.05700
C640        C  0.33977113  0.47621860  0.82440783    -0.09100
C641        C  0.32276110  0.47362960  0.82339698    -0.25700
S642        S  0.27734432  0.43239426  0.89478368    -0.02900
C643        C  0.28617281  0.41897325  0.92682770    -0.16400
C644        C  0.30315503  0.42239188  0.92822507    -0.14400
H645        H  0.33529421  0.43756063  0.91265011     0.21000
H646        H  0.29050982  0.46059416  0.83999942     0.17000
H647        H  0.31524127  0.47933965  0.80437463     0.19500
H648        H  0.31074116  0.41530828  0.94664876     0.12900
C649        C  0.31450308  0.03814880  0.64946900     0.16800
C650        C  0.30173370  0.03787050  0.62844437    -0.32300
C651        C  0.29817336  0.06361351  0.61356664     0.21200
C652        C  0.30701240  0.08850384  0.61915213     0.03400
C653        C  0.31965538  0.08885554  0.64040487    -0.22000
C654        C  0.32310318  0.06318666  0.65549775     0.12500
S655        S  0.32095704  0.00905672  0.66952383    -0.05700
C656        C  0.33514537  0.03101738  0.68662762    -0.09100
C657        C  0.33486116  0.05927048  0.67702369    -0.25700
S658        S  0.30110661  0.11729742  0.59813825    -0.02900
C659        C  0.28643339  0.09564276  0.58195506    -0.16400
C660        C  0.28626080  0.06764491  0.59234770    -0.14400
H661        H  0.29490787  0.01842278  0.62381166     0.21000
H662        H  0.32652912  0.10827475  0.64494012     0.17000
H663        H  0.34298484  0.07596512  0.68510959     0.19500
H664        H  0.27794392  0.05112611  0.58452775     0.12900
C665        C  0.43452538  0.35440842  0.75593081     0.16800
C666        C  0.42275977  0.37210977  0.76943164    -0.32300
C667        C  0.41480703  0.39230597  0.75138288     0.21200
C668        C  0.41824230  0.39471956  0.72111224     0.03400
C669        C  0.43003400  0.37696294  0.70754470    -0.22000
C670        C  0.43811881  0.35688307  0.72570148     0.12500
S671        S  0.44579954  0.32909869  0.77429064    -0.05700
C672        C  0.45554630  0.32193035  0.74095928    -0.09100
C673        C  0.45025097  0.33822381  0.71696986    -0.25700
S674        S  0.40738779  0.42113075  0.70339962    -0.02900
C675        C  0.39833043  0.42906014  0.73727475    -0.16400
C676        C  0.40342472  0.41194079  0.76074803    -0.14400
H677        H  0.42006353  0.37045934  0.79308382     0.21000
H678        H  0.43292453  0.37894277  0.68399619     0.17000
H679        H  0.45517928  0.33667954  0.69451534     0.19500
H680        H  0.39922780  0.41410234  0.78363343     0.12900
C681        C  0.44453896  0.13139269  0.72322158     0.16800
C682        C  0.43653995  0.10601348  0.71462063    -0.32300
C683        C  0.42363032  0.09587839  0.73285961     0.21200
C684        C  0.41886507  0.11038606  0.75847624     0.03400
C685        C  0.42686820  0.13572399  0.76707481    -0.22000
C686        C  0.43976810  0.14584147  0.74887794     0.12500
S687        S  0.46055459  0.14717464  0.70432264    -0.05700
C688        C  0.46079409  0.17350674  0.73130085    -0.09100
C689        C  0.44903643  0.17002660  0.75359743    -0.25700
S690        S  0.40280714  0.09479654  0.77738610    -0.02900
C691        C  0.40249819  0.06836776  0.75057216    -0.16400
C692        C  0.41430528  0.07168915  0.72825851    -0.14400
H693        H  0.44021640  0.09466323  0.69460190     0.21000
H694        H  0.42318417  0.14709092  0.78707806     0.17000
H695        H  0.44747201  0.18437977  0.77237383     0.19500
H696        H  0.41587210  0.05730925  0.70950289     0.12900
C697        C  0.68616762  0.04232833  0.84396619     0.16800
C698        C  0.70101129  0.05249925  0.85589005    -0.32300
C699        C  0.70056382  0.06421855  0.88468367     0.21200
C700        C  0.68595791  0.06595492  0.90079567     0.03400
C701        C  0.67115913  0.05531197  0.88909792    -0.22000
C702        C  0.67163389  0.04336467  0.86038813     0.12500
S703        S  0.68398462  0.02890727  0.80878943    -0.05700
C704        C  0.66332066  0.02432102  0.81636598    -0.09100
C705        C  0.65848573  0.03262352  0.84479156    -0.25700
S706        S  0.68791457  0.08163967  0.93495679    -0.02900
C707        C  0.70878227  0.08507415  0.92794653    -0.16400
C708        C  0.71371663  0.07505348  0.90017184    -0.14400
H709        H  0.71238086  0.05158952  0.84315256     0.21000
H710        H  0.65975633  0.05652419  0.90171040     0.17000
H711        H  0.64593164  0.03192467  0.85312216     0.19500
H712        H  0.72629508  0.07536842  0.89194892     0.12900
C713        C  0.70240788  0.45329495  0.61207059     0.16800
C714        C  0.69275628  0.47474579  0.62527017    -0.32300
C715        C  0.68272841  0.46691048  0.64954604     0.21200
C716        C  0.68260183  0.43910442  0.66058436     0.03400
C717        C  0.69231608  0.41772325  0.64752525    -0.22000
C718        C  0.70204055  0.42540680  0.62285777     0.12500
S719        S  0.71486781  0.45813283  0.58165372    -0.05700
C720        C  0.71941811  0.42211710  0.58329020    -0.09100
C721        C  0.71170572  0.40736077  0.60631289    -0.25700
S722        S  0.66959016  0.43379081  0.69004332    -0.02900
C723        C  0.66405612  0.46929532  0.68722683    -0.16400
C724        C  0.67204689  0.48440042  0.66477045    -0.14400
H725        H  0.69283986  0.49645094  0.61666984     0.21000
H726        H  0.69208003  0.39593535  0.65589713     0.17000
H727        H  0.71299942  0.38460016  0.61044595     0.19500
H728        H  0.67112566  0.00021539  0.66585224     0.12900
C729        C  0.58390172  0.11296942  0.75390179     0.16800
C730        C  0.57402941  0.13481202  0.76563657    -0.32300
C731        C  0.56481349  0.15123996  0.74562360     0.21200
C732        C  0.56537229  0.14622518  0.71510693     0.03400
C733        C  0.57542971  0.12441312  0.70324847    -0.22000
C734        C  0.58467427  0.10782640  0.72342034     0.12500
S735        S  0.59542933  0.09035605  0.77501626    -0.05700
C736        C  0.60157177  0.07355285  0.74265857    -0.09100
C737        C  0.59489942  0.08508382  0.71673115    -0.25700
S738        S  0.55246997  0.16777111  0.69490617    -0.02900
C739        C  0.54640456  0.18350669  0.72798431    -0.16400
C740        C  0.55405849  0.17269767  0.75311424    -0.14400
H741        H  0.57336768  0.13855605  0.78947576     0.21000
H742        H  0.57581984  0.12027166  0.67947049     0.17000
H743        H  0.59717868  0.07703349  0.69442857     0.19500
H744        H  0.55144204  0.17955065  0.77573854     0.12900
C745        C  0.58360004  0.39491646  0.76094592     0.16800
C746        C  0.57652887  0.36855591  0.76901424    -0.32300
C747        C  0.56257854  0.35946019  0.75318601     0.21200
C748        C  0.55604019  0.37573576  0.73016291     0.03400
C749        C  0.56317808  0.40196614  0.72195395    -0.22000
C750        C  0.57702414  0.41116802  0.73795114     0.12500
S751        S  0.60040831  0.41001776  0.77766096    -0.05700
C752        C  0.59846558  0.43854847  0.75348643    -0.09100
C753        C  0.58552671  0.43619835  0.73353758    -0.25700
S754        S  0.53901665  0.36111008  0.71384613    -0.02900
C755        C  0.54071718  0.33272231  0.73829063    -0.16400
C756        C  0.55380371  0.33472943  0.75799422    -0.14400
H757        H  0.58160103  0.35579884  0.78697341     0.21000
H758        H  0.55808727  0.41475235  0.70403072     0.17000
H759        H  0.58254710  0.45193336  0.71659843     0.19500
H760        H  0.55668503  0.31892300  0.77491009     0.12900
C761        C  0.79648349  0.17543421  0.88104336     0.16800
C762        C  0.80569306  0.17451956  0.85459403    -0.32300
C763        C  0.81631428  0.19752109  0.84860045     0.21200
C764        C  0.81780475  0.22048007  0.86803652     0.03400
C765        C  0.80846593  0.22150584  0.89446734    -0.22000
C766        C  0.79776748  0.19847104  0.90042443     0.12500
S767        S  0.78337082  0.14908343  0.89270266    -0.05700
C768        C  0.77947707  0.16924298  0.92416116    -0.09100
C769        C  0.78788211  0.19518368  0.92509616    -0.25700
S770        S  0.83177504  0.24587336  0.85676761    -0.02900
C771        C  0.83547151  0.22528683  0.82553584    -0.16400
C772        C  0.82634920  0.20023324  0.82417960    -0.14400
H773        H  0.80473192  0.15652447  0.83945081     0.21000
H774        H  0.80958379  0.23931443  0.90980524     0.17000
H775        H  0.78703949  0.21050386  0.94317756     0.19500
H776        H  0.82717216  0.18460131  0.80637943     0.12900
C777        C  0.81130735  0.33409235  0.62778525     0.16800
C778        C  0.82233216  0.33399518  0.65183112    -0.32300
C779        C  0.82720740  0.30732597  0.66332783     0.21200
C780        C  0.82154203  0.28181742  0.65124962     0.03400
C781        C  0.81038546  0.28192004  0.62737220    -0.22000
C782        C  0.80535914  0.30861180  0.61608855     0.12500
S783        S  0.80399527  0.36418470  0.61049456    -0.05700
C784        C  0.79236858  0.34221494  0.58781606    -0.09100
C785        C  0.79448196  0.31315796  0.59318960    -0.25700
S786        S  0.82921764  0.25174253  0.66815121    -0.02900
C787        C  0.83989103  0.27382172  0.69211280    -0.16400
C788        C  0.83765428  0.30285637  0.68686075    -0.14400
H789        H  0.82688802  0.35384638  0.66122204     0.21000
H790        H  0.80579280  0.26207192  0.61803695     0.17000
H791        H  0.78829938  0.29628424  0.58097846     0.19500
H792        H  0.84341590  0.31983035  0.69959074     0.12900
C793        C  0.18647943  0.30732765  0.85051498     0.16800
C794        C  0.19771656  0.32707867  0.86223018    -0.32300
C795        C  0.20467292  0.32084515  0.89003385     0.21200
C796        C  0.20080783  0.29586583  0.90538451     0.03400
C797        C  0.18946204  0.27615114  0.89375699    -0.22000
C798        C  0.18232814  0.28257819  0.86606276     0.12500
S799        S  0.17676208  0.31110471  0.81709405    -0.05700
C800        C  0.16685690  0.27914525  0.82417479    -0.09100
C801        C  0.17091304  0.26636662  0.85111834    -0.25700
S802        S  0.21051073  0.29248690  0.93892311    -0.02900
C803        C  0.21946076  0.32557778  0.93258246    -0.16400
C804        C  0.21534550  0.33795722  0.90549922    -0.14400
H805        H  0.20080565  0.34658142  0.85029044     0.21000
H806        H  0.18623964  0.25680721  0.90585981     0.17000
H807        H  0.16590060  0.24624192  0.85916645     0.19500
H808        H  0.21956064  0.35880182  0.89796579     0.12900
C809        C  0.17936220  0.18389470  0.66502148     0.16800
C810        C  0.18827979  0.16319250  0.64910222    -0.32300
C811        C  0.19629221  0.17190180  0.62278058     0.21200
C812        C  0.19549864  0.19999903  0.61272814     0.03400
C813        C  0.18646160  0.22067223  0.62853713    -0.22000
C814        C  0.17840180  0.21193091  0.65483214     0.12500
S815        S  0.16899687  0.17766881  0.69766718    -0.05700
C816        C  0.16311596  0.21311667  0.69741118    -0.09100
C817        C  0.16900856  0.22880733  0.67329974    -0.25700
S818        S  0.20642210  0.20635323  0.58064887    -0.02900
C819        C  0.21211275  0.17077193  0.58080980    -0.16400
C820        C  0.20573894  0.15499686  0.60447193    -0.14400
H821        H  0.18901496  0.14127745  0.65697741     0.21000
H822        H  0.18580166  0.24262591  0.62075852     0.17000
H823        H  0.16660254  0.25134983  0.66956850     0.19500
H824        H  0.20808069  0.13243357  0.60819471     0.12900
C825        C  0.06288826  0.38498381  0.73684703     0.16800
C826        C  0.07380479  0.36507071  0.72395948    -0.32300
C827        C  0.08297948  0.34762291  0.74341124     0.21200
C828        C  0.08125422  0.34999422  0.77415530     0.03400
C829        C  0.07039612  0.36970680  0.78690322    -0.22000
C830        C  0.06133287  0.38708785  0.76763793     0.12500
S831        S  0.05058873  0.40832253  0.71760621    -0.05700
C832        C  0.04348994  0.42078386  0.75153223    -0.09100
C833        C  0.05026625  0.40756153  0.77616527    -0.25700
S834        S  0.09315981  0.32720321  0.79426887    -0.02900
C835        C  0.10065420  0.31397298  0.76111435    -0.16400
C836        C  0.09422305  0.32681197  0.73568441    -0.14400
H837        H  0.07508638  0.36327686  0.69995403     0.21000
H838        H  0.06907763  0.37144061  0.81091338     0.17000
H839        H  0.04716889  0.41265473  0.79910239     0.19500
H840        H  0.09745599  0.32106836  0.71298231     0.12900
C841        C  0.05875303  0.11484943  0.75390883     0.16800
C842        C  0.06556884  0.14098505  0.74475447    -0.32300
C843        C  0.07857975  0.15216006  0.76155093     0.21200
C844        C  0.08460583  0.13807855  0.78650337     0.03400
C845        C  0.07761161  0.11200129  0.79597101    -0.22000
C846        C  0.06456508  0.10072425  0.77902655     0.12500
S847        S  0.04293776  0.09793940  0.73620018    -0.05700
C848        C  0.04386491  0.07166968  0.76316993    -0.09100
C849        C  0.05603248  0.07577475  0.78446519    -0.25700
S850        S  0.10106576  0.15486245  0.80280704    -0.02900
C851        C  0.09972795  0.18090084  0.77554732    -0.16400
C852        C  0.08708188  0.17678653  0.75536219    -0.14400
H853        H  0.06101661  0.15203362  0.72517369     0.21000
H854        H  0.08222992  0.10087504  0.81544584     0.17000
H855        H  0.05820930  0.06162253  0.80322089     0.19500
H856        H  0.08453768  0.19068926  0.73654689     0.12900
C857        C  0.93869614  0.10359004  0.78667746     0.16800
C858        C  0.92802906  0.12410884  0.79911341    -0.32300
C859        C  0.91844040  0.14051520  0.77938089     0.21200
C860        C  0.91935220  0.13641170  0.74874052     0.03400
C861        C  0.93002844  0.11607407  0.73637558    -0.22000
C862        C  0.93968923  0.09992837  0.75597801     0.12500
S863        S  0.95151008  0.08161816  0.80650371    -0.05700
C864        C  0.95831247  0.06778919  0.77297293    -0.09100
C865        C  0.95096246  0.07950332  0.74799395    -0.25700
S866        S  0.90695577  0.15840259  0.72839169    -0.02900
C867        C  0.90059404  0.17380239  0.76133867    -0.16400
C868        C  0.90764393  0.16207868  0.78680315    -0.14400
H869        H  0.92733228  0.12728975  0.82303521     0.21000
H870        H  0.93086726  0.11312253  0.71243284     0.17000
H871        H  0.95381373  0.07343926  0.72521558     0.19500
H872        H  0.90521835  0.16925621  0.80938507     0.12900
C873        C  0.93689592  0.38885677  0.77807268     0.16800
C874        C  0.92472810  0.37099267  0.79047286    -0.32300
C875        C  0.91950235  0.34742212  0.77353523     0.21200
C876        C  0.92604771  0.34194761  0.74544516     0.03400
C877        C  0.93814198  0.35987480  0.73298530    -0.22000
C878        C  0.94341686  0.38334769  0.74996881     0.12500
S879        S  0.94530952  0.41795883  0.79543999    -0.05700
C880        C  0.95781497  0.42256687  0.76458461    -0.09100
C881        C  0.95538985  0.40270935  0.74205534    -0.25700
S882        S  0.91802584  0.31242465  0.72837542    -0.02900
C883        C  0.90563320  0.30748045  0.75930852    -0.16400
C884        C  0.90777225  0.32763328  0.78165774    -0.14400
H885        H  0.91964192  0.37516567  0.81243821     0.21000
H886        H  0.94329101  0.35560957  0.71108477     0.17000
H887        H  0.96230428  0.40216593  0.72131575     0.19500
H888        H  0.90095070  0.32801468  0.80250177     0.12900
N889        N  0.00218229  0.54003912  0.76570942    -0.35800
N890        N  0.02755302  0.99588940  0.76448471    -0.56400
N891        N  0.00229080  0.95086936  0.76243430    -0.35800
N892        N  0.97641663  0.99378668  0.76814460    -0.56400
C893        C  0.01589156  0.55608675  0.76995917     0.27800
C894        C  0.98899220  0.55669413  0.77213293     0.27800
C895        C  0.01602440  0.93473869  0.76573278     0.27800
C896        C  0.98909547  0.93358594  0.76723508     0.27800
C897        C  0.03727338  0.51867416  0.75957785     0.36400
C898        C  0.03729583  0.97313315  0.75834351     0.36400
C899        C  0.96662939  0.52026565  0.76503523     0.36400
C900        C  0.96678834  0.97042028  0.76415350     0.36400
C901        C  0.01131317  0.58338081  0.77904055    -0.21100
C902        C  0.99438045  0.58380432  0.78025069    -0.21100
C903        C  0.01147090  0.90671796  0.77227735    -0.21100
C904        C  0.99452745  0.90601722  0.77330061    -0.21100
C905        C  0.05319879  0.51009174  0.75271982    -0.22100
C906        C  0.05301213  0.98243482  0.75070900    -0.22100
C907        C  0.95029249  0.51253197  0.76067373    -0.22100
C908        C  0.95050783  0.97867667  0.76046717    -0.22100
C909        C  0.03238768  0.54743676  0.76446022    -0.17500
C910        C  0.97222044  0.54871402  0.76915442    -0.17500
C911        C  0.97227261  0.94165846  0.76534277    -0.17500
C912        C  0.03248846  0.94404789  0.76093723    -0.17500
H913        H  0.01932931  0.60130059  0.78403293     0.15400
H914        H  0.98691147  0.60214786  0.78616109     0.15400
H915        H  0.01948610  0.88848947  0.77561201     0.15400
H916        H  0.98707254  0.88722094  0.77779663     0.15400
H917        H  0.06402998  0.52347345  0.75018143     0.13700
H918        H  0.06357849  0.96941471  0.74491640     0.13700
H919        H  0.93970545  0.52651561  0.75899782     0.13700
H920        H  0.93989602  0.96500261  0.75700730     0.13700
H921        H  0.00174998  0.52007999  0.75576951     0.27000
H922        H  0.00193040  0.97159976  0.75415159     0.27000
In923      In  0.13438121  0.74576545  0.76080732     1.36900
C924        C  0.11332762  0.70280627  0.76862786     0.78400
O925        O  0.11713904  0.77452047  0.78533820    -0.60000
O926        O  0.11870509  0.77913080  0.73811880    -0.51000
C927        C  0.15664215  0.76770478  0.79782973     0.71100
O928        O  0.14884798  0.74488222  0.80364236    -0.45800
C929        C  0.15282127  0.72557446  0.71606904     0.75800
O930        O  0.12500735  0.70739169  0.78662941    -0.57700
O931        O  0.14696608  0.75061084  0.71582669    -0.47800
O932        O  0.11246734  0.72028998  0.74716946    -0.54100
C933        C  0.11233587  0.78763962  0.76235921     0.85900
O934        O  0.15347366  0.77854976  0.77274355    -0.56000
O935        O  0.14935548  0.71123612  0.73908775    -0.59300
In936      In  0.86913231  0.74382806  0.75763796     1.36900
C937        C  0.89262889  0.78387657  0.75872747     0.78400
O938        O  0.88551846  0.71200638  0.78049911    -0.60000
O939        O  0.88192758  0.70786986  0.73375253    -0.51000
C940        C  0.84689011  0.73223692  0.80019829     0.71100
O941        O  0.85608786  0.75405743  0.80111191    -0.45800
C942        C  0.84962262  0.76057012  0.71306401     0.75800
O943        O  0.88253579  0.78050173  0.78003782    -0.57700
O944        O  0.85408696  0.73493161  0.71640550    -0.47800
O945        O  0.89075503  0.76666372  0.73736536    -0.54100
C946        C  0.88890339  0.69851383  0.75689008     0.85900
O947        O  0.84906956  0.71660702  0.77762928    -0.56000
O948        O  0.85501237  0.77752321  0.73258913    -0.59300
In949      In  0.63225196  0.50456319  0.74874632     1.36900
C950        C  0.60749411  0.96041086  0.75925694     0.78400
O951        O  0.61825794  0.54066397  0.76943282    -0.60000
O952        O  0.61900442  0.53886764  0.72209677    -0.51000
C953        C  0.65404461  0.51954702  0.78990480     0.71100
O954        O  0.64039140  0.50800504  0.79642916    -0.45800
C955        C  0.64943757  0.97632237  0.70935353     0.75800
O956        O  0.61982439  0.96275290  0.77617332    -0.57700
O957        O  0.64770492  0.50806603  0.70689364    -0.47800
O958        O  0.60682842  0.97872628  0.73857195    -0.54100
C959        C  0.61378530  0.55167884  0.74511833     0.85900
O960        O  0.65669653  0.52277036  0.76237567    -0.56000
O961        O  0.64216607  0.96229843  0.72956398    -0.59300
N962        N  0.49685265  0.79533357  0.74452788    -0.35800
N963        N  0.52406187  0.75390957  0.74310116    -0.56400
N964        N  0.50032070  0.70799737  0.73315392    -0.35800
N965        N  0.47316343  0.74924478  0.73916092    -0.56400
C966        C  0.50956855  0.81246521  0.75234894     0.27800
C967        C  0.48274791  0.80995749  0.75000515     0.27800
C968        C  0.51427320  0.69255022  0.73727239     0.27800
C969        C  0.48737444  0.68996225  0.73714267     0.27800
C970        C  0.53287791  0.77856782  0.74244393     0.36400
C971        C  0.53472460  0.73252981  0.73640705     0.36400
C972        C  0.46273528  0.77166407  0.73620987     0.36400
C973        C  0.46444833  0.72546404  0.73231872     0.36400
C974        C  0.50347897  0.83840617  0.76273346    -0.21100
C975        C  0.48659196  0.83688545  0.76110878    -0.21100
C976        C  0.51015466  0.66426518  0.74323286    -0.21100
C977        C  0.49323170  0.66267223  0.74339085    -0.21100
C978        C  0.54924099  0.77272509  0.73573970    -0.22100
C979        C  0.55041378  0.74359010  0.73201512    -0.22100
C980        C  0.44730691  0.76205323  0.72755235    -0.22100
C981        C  0.44839534  0.73279601  0.72506212    -0.22100
C982        C  0.52652015  0.80626007  0.74840351    -0.17500
C983        C  0.46658365  0.80035830  0.74351083    -0.17500
C984        C  0.47043649  0.69708120  0.73435673    -0.17500
C985        C  0.53065512  0.70303562  0.73529607    -0.17500
H986        H  0.51048194  0.85676771  0.77028321     0.15400
H987        H  0.47816958  0.85393693  0.76699634     0.15400
H988        H  0.51847595  0.64663456  0.74750614     0.15400
H989        H  0.48608540  0.64350897  0.74779427     0.15400
H990        H  0.55930586  0.78786524  0.73362671     0.13700
H991        H  0.56154032  0.73190771  0.72655794     0.13700
H992        H  0.43634163  0.77471653  0.72381282     0.13700
H993        H  0.43846017  0.71852560  0.71881712     0.13700
H994        H  0.49785960  0.77625665  0.73287837     0.27000
H995        H  0.49971691  0.72890843  0.72534722     0.27000
In996      In  0.36816565  0.49918011  0.75120038     1.36900
C997        C  0.38953699  0.54257424  0.75388431     0.78400
O998        O  0.38278990  0.96574864  0.76837963    -0.60000
O999        O  0.38001128  0.96856831  0.72144989    -0.51000
C1000       C  0.34956670  0.98733378  0.79757341     0.71100
O1001       O  0.36457945  0.49317195  0.80080520    -0.45800
C1002       C  0.34659115  0.51543990  0.70992334     0.75800
O1003       O  0.37792002  0.53974991  0.77249970    -0.57700
O1004       O  0.35029073  0.48945782  0.71406667    -0.47800
O1005       O  0.39018606  0.52325197  0.73433834    -0.54100
C1006       C  0.38603285  0.95509456  0.74325725     0.85900
O1007       O  0.34475402  0.98452393  0.77101438    -0.56000
O1008       O  0.35375771  0.53282874  0.72709660    -0.59300
N1009       N  0.25267045  0.87613255  0.05211093    -0.35800
N1010       N  0.23215681  0.84991470  0.00711908    -0.56400
N1011       N  0.25316821  0.87475577  0.96096300    -0.35800
N1012       N  0.27511742  0.89766993  0.00612729    -0.56400
C1013       C  0.24381580  0.85722388  0.06861766     0.27800
C1014       C  0.26615193  0.88321999  0.06816563     0.27800
C1015       C  0.24422324  0.85555978  0.94518676     0.27800
C1016       C  0.26692713  0.88069944  0.94485891     0.27800
C1017       C  0.22228129  0.84683680  0.03133787     0.36400
C1018       C  0.22243168  0.84665127  0.98294071     0.36400
C1019       C  0.27996942  0.91318273  0.03000771     0.36400
C1020       C  0.28053771  0.91199021  0.98167567     0.36400
C1021       C  0.25194526  0.85181054  0.09521997    -0.21100
C1022       C  0.26602774  0.86831728  0.09497794    -0.21100
C1023       C  0.25248882  0.84889660  0.91893579    -0.21100
C1024       C  0.26686178  0.86469097  0.91878787    -0.21100
C1025       C  0.20617064  0.84187978  0.02252070    -0.22100
C1026       C  0.20626421  0.84179037  0.99181859    -0.22100
C1027       C  0.28838250  0.93750930  0.02069481    -0.22100
C1028       C  0.28875866  0.93673826  0.99006158    -0.22100
C1029       C  0.22800561  0.84671158  0.06111439    -0.17500
C1030       C  0.27771116  0.90455819  0.06001174    -0.17500
C1031       C  0.27861323  0.90216213  0.95205555    -0.17500
C1032       C  0.22835094  0.84545791  0.95323596    -0.17500
H1033       H  0.24807097  0.83766730  0.11310850     0.15400
H1034       H  0.27506974  0.86938126  0.11263966     0.15400
H1035       H  0.24853240  0.83434012  0.90158386     0.15400
H1036       H  0.27611396  0.86463297  0.90129693     0.15400
H1037       H  0.19547552  0.83860345  0.03666125     0.13700
H1038       H  0.19566278  0.83834562  0.97767389     0.13700
H1039       H  0.29360271  0.95422771  0.03446185     0.13700
H1040       H  0.29427006  0.95280802  0.97569984     0.13700
H1041       H  0.24872817  0.88642330  0.03276790     0.27000
H1042       H  0.24913219  0.88581178  0.97980739     0.27000
N1043       N  0.99889016  0.95106210  0.23898899    -0.35800
N1044       N  0.02343518  0.49736304  0.25801358    -0.56400
N1045       N  0.99795253  0.54112817  0.26546204    -0.35800
N1046       N  0.97245498  0.49754865  0.25717360    -0.56400
C1047       C  0.01213697  0.93534297  0.24714417     0.27800
C1048       C  0.98542801  0.93399109  0.24154682     0.27800
C1049       C  0.01153454  0.55786363  0.26270470     0.27800
C1050       C  0.98465481  0.55808320  0.26091744     0.27800
C1051       C  0.03385434  0.97302472  0.24177331     0.36400
C1052       C  0.03312503  0.51981830  0.26551347     0.36400
C1053       C  0.96382886  0.97023747  0.22992316     0.36400
C1054       C  0.96265439  0.52046548  0.26218180     0.36400
C1055       C  0.00703688  0.90792693  0.25493415    -0.21100
C1056       C  0.99022626  0.90701788  0.25125087    -0.21100
C1057       C  0.00678309  0.58592160  0.25722973    -0.21100
C1058       C  0.98985918  0.58605166  0.25605525    -0.21100
C1059       C  0.04986654  0.98196325  0.23599848    -0.22100
C1060       C  0.04909853  0.51057309  0.27056331    -0.22100
C1061       C  0.94803622  0.97841910  0.22185533    -0.22100
C1062       C  0.94641094  0.51170075  0.26548720    -0.22100
C1063       C  0.02882444  0.94414989  0.24514134    -0.17500
C1064       C  0.96909340  0.94159091  0.23371844    -0.17500
C1065       C  0.96792161  0.54935370  0.26179961    -0.17500
C1066       C  0.02810070  0.54880756  0.26574062    -0.17500
H1067       H  0.01468926  0.89018201  0.26193080     0.15400
H1068       H  0.98249711  0.88840595  0.25491842     0.15400
H1069       H  0.01468326  0.60443801  0.25424522     0.15400
H1070       H  0.98226298  0.60470141  0.25205485     0.15400
H1071       H  0.06064003  0.96866635  0.23269834     0.13700
H1072       H  0.05967449  0.52349411  0.27654902     0.13700
H1073       H  0.93777594  0.96464792  0.21614351     0.13700
H1074       H  0.93569378  0.52502739  0.26925393     0.13700
H1075       H  0.99929086  0.97095013  0.22863416     0.27000
H1076       H  0.99775142  0.52002087  0.27270672     0.27000
In1077     In  0.13097983  0.74596910  0.25041741     1.36900
C1078       C  0.10882710  0.70383654  0.24932888     0.78400
O1079       O  0.14707184  0.71099928  0.26789961    -0.60000
O1080       O  0.14451829  0.74851245  0.29426820    -0.51000
C1081       C  0.15285149  0.76220894  0.20881474     0.71100
O1082       O  0.14325209  0.74121360  0.20523282    -0.45800
C1083       C  0.11073640  0.79084074  0.25369753     0.75800
O1084       O  0.11761648  0.71023318  0.22690496    -0.57700
O1085       O  0.12038014  0.78420341  0.27461775    -0.47800
O1086       O  0.11110228  0.71944656  0.27192097    -0.54100
C1087       C  0.15075354  0.72387448  0.29162706     0.85900
O1088       O  0.15125680  0.77474100  0.23353145    -0.56000
O1089       O  0.11153146  0.77463027  0.23123563    -0.59300
In1090     In  0.86540776  0.74565022  0.25083103     1.36900
C1091       C  0.88492168  0.70053265  0.25836441     0.78400
O1092       O  0.85181792  0.75642093  0.20856993    -0.60000
O1093       O  0.84666308  0.71677880  0.22996407    -0.51000
C1094       C  0.84479189  0.76624230  0.29154276     0.71100
O1095       O  0.84877868  0.74012723  0.29093854    -0.45800
C1096       C  0.88865808  0.78568313  0.24672480     0.75800
O1097       O  0.87738623  0.71218080  0.27982785    -0.57700
O1098       O  0.88156513  0.77582430  0.22386468    -0.47800
O1099       O  0.88223162  0.71167261  0.23318896    -0.54100
C1100       C  0.84365955  0.73340664  0.20849645     0.85900
O1101       O  0.85121063  0.78139862  0.27134589    -0.56000
O1102       O  0.88416148  0.77445167  0.27104897    -0.59300
In1103     In  0.63355302  0.51262125  0.26952034     1.36900
C1104       C  0.61469399  0.55900026  0.27816761     0.78400
O1105       O  0.65834620  0.52775403  0.25292027    -0.60000
O1106       O  0.63970991  0.51893906  0.22104301    -0.51000
C1107       C  0.65143274  0.98953131  0.30943713     0.71100
O1108       O  0.64869289  0.51719139  0.31151576    -0.45800
C1109       C  0.61049562  0.97077723  0.25783067     0.75800
O1110       O  0.61788417  0.54155303  0.29887344    -0.57700
O1111       O  0.62342680  0.97286697  0.24224647    -0.47800
O1112       O  0.62170381  0.55339067  0.25375407    -0.54100
C1113       C  0.65428481  0.52717515  0.22576548     0.85900
O1114       O  0.64569129  0.97501972  0.28819892    -0.56000
O1115       O  0.60869883  0.99003785  0.27721501    -0.59300
In1116     In  0.36962335  0.51355111  0.24857740     1.36900
C1117       C  0.39198574  0.55517860  0.24665733     0.78400
O1118       O  0.35317220  0.50822619  0.28881026    -0.60000
O1119       O  0.35568196  0.54983279  0.26984945    -0.51000
C1120       C  0.35091074  0.99449865  0.20519875     0.71100
O1121       O  0.36368733  0.51020461  0.19957875    -0.45800
C1122       C  0.38923430  0.96575817  0.25730975     0.75800
O1123       O  0.38130193  0.55209143  0.22648935    -0.57700
O1124       O  0.38405290  0.98048675  0.27901054    -0.47800
O1125       O  0.39127725  0.53686218  0.26731008    -0.54100
C1126       C  0.34940053  0.53446680  0.29013874     0.85900
O1127       O  0.34678482  0.99158911  0.23221927    -0.56000
O1128       O  0.38417795  0.97398245  0.23220702    -0.59300
N1129       N  0.50029308  0.80539864  0.26209005    -0.35800
N1130       N  0.52714822  0.76403283  0.26594460    -0.56400
N1131       N  0.50315240  0.71826336  0.27120355    -0.35800
N1132       N  0.47640616  0.75973079  0.26376022    -0.56400
C1133       C  0.51339365  0.82187131  0.25461628     0.27800
C1134       C  0.48661186  0.81962483  0.25329873     0.27800
C1135       C  0.51713642  0.70307178  0.26642659     0.27800
C1136       C  0.49031106  0.70073604  0.26502810     0.27800
C1137       C  0.53587362  0.78849279  0.26919120     0.36400
C1138       C  0.53739002  0.74238179  0.27336279     0.36400
C1139       C  0.46595649  0.78221018  0.26568459     0.36400
C1140       C  0.46744710  0.73607312  0.27012876     0.36400
C1141       C  0.50799327  0.84679107  0.24085172    -0.21100
C1142       C  0.49107205  0.84540421  0.24010144    -0.21100
C1143       C  0.51313279  0.67553144  0.25741400    -0.21100
C1144       C  0.49621122  0.67406947  0.25646377    -0.21100
C1145       C  0.55174736  0.78234674  0.27863719    -0.22100
C1146       C  0.55273193  0.75306275  0.28110367    -0.22100
C1147       C  0.45026756  0.77282363  0.27320581    -0.22100
C1148       C  0.45121028  0.74354805  0.27606116    -0.22100
C1149       C  0.52996591  0.81607839  0.26198850    -0.17500
C1150       C  0.47020735  0.81075906  0.25860195    -0.17500
C1151       C  0.47341833  0.70771117  0.26817133    -0.17500
C1152       C  0.53338796  0.71306354  0.27108265    -0.17500
H1153       H  0.51547376  0.86433519  0.23253652     0.15400
H1154       H  0.48297062  0.86165040  0.23111632     0.15400
H1155       H  0.52152934  0.65827598  0.25201590     0.15400
H1156       H  0.48906910  0.65544154  0.25014684     0.15400
H1157       H  0.56165595  0.79731987  0.28295522     0.13700
H1158       H  0.56351968  0.74099769  0.28763899     0.13700
H1159       H  0.43925910  0.78566291  0.27587511     0.13700
H1160       H  0.44104563  0.72935276  0.28142311     0.13700
H1161       H  0.50062017  0.78740409  0.27578742     0.27000
H1162       H  0.50235815  0.73837327  0.28105518     0.27000
N1163       N  0.74376700  0.63257451  0.95850758    -0.35800
N1164       N  0.72300495  0.60684102  0.00431768    -0.56400
N1165       N  0.74314558  0.63308091  0.04926085    -0.35800
N1166       N  0.76285109  0.66226374  0.00343967    -0.56400
C1167       C  0.73047142  0.62408807  0.94268764     0.27800
C1168       C  0.75150205  0.65312420  0.94234974     0.27800
C1169       C  0.72985764  0.62495985  0.06564823     0.27800
C1170       C  0.75131969  0.65307293  0.06519187     0.27800
C1171       C  0.71869137  0.59112654  0.98031021     0.36400
C1172       C  0.71791437  0.59200408  0.02860650     0.36400
C1173       C  0.77264461  0.66616933  0.97922201     0.36400
C1174       C  0.77255671  0.66584674  0.02760584     0.36400
C1175       C  0.72952984  0.63989778  0.91648162    -0.21100
C1176       C  0.74287223  0.65819262  0.91623245    -0.21100
C1177       C  0.72943391  0.64043352  0.09207071    -0.21100
C1178       C  0.74307912  0.65804051  0.09187466    -0.21100
C1179       C  0.71108370  0.56591477  0.98939363    -0.22100
C1180       C  0.71051378  0.56654783  0.02005207    -0.22100
C1181       C  0.78861758  0.67232081  0.98804997    -0.22100
C1182       C  0.78855349  0.67216910  0.01874124    -0.22100
C1183       C  0.72002591  0.60098356  0.95057636    -0.17500
C1184       C  0.76700137  0.66503827  0.94942402    -0.17500
C1185       C  0.76688009  0.66451180  0.05744800    -0.17500
C1186       C  0.71899047  0.60236577  0.05810993    -0.17500
H1187       H  0.72033619  0.63819677  0.89913637     0.15400
H1188       H  0.74601258  0.67321770  0.89865314     0.15400
H1189       H  0.72042071  0.63888902  0.10989500     0.15400
H1190       H  0.74667495  0.67255186  0.10953034     0.15400
H1191       H  0.70628905  0.54896492  0.97542544     0.13700
H1192       H  0.70526900  0.55014975  0.03434783     0.13700
H1193       H  0.79927570  0.67614064  0.97397997     0.13700
H1194       H  0.79912954  0.67597438  0.03283980     0.13700
H1195       H  0.74848772  0.62230493  0.97729080     0.27000
H1196       H  0.74765183  0.62293049  0.03021396     0.27000
N1197       N  0.22882780  0.65155611  0.50173823    -0.35800
N1198       N  0.24838609  0.62237406  0.45635550    -0.56400
N1199       N  0.26975857  0.59979643  0.50359263    -0.35800
N1200       N  0.24980799  0.62837096  0.54889668    -0.56400
C1201       C  0.21879914  0.65415850  0.47776575     0.27800
C1202       C  0.21969340  0.65810599  0.52617919     0.27800
C1203       C  0.27856958  0.59154032  0.47930510     0.27800
C1204       C  0.27861689  0.59278168  0.52815468     0.27800
C1205       C  0.23768960  0.63584079  0.43803485     0.36400
C1206       C  0.26025761  0.61100366  0.43876481     0.36400
C1207       C  0.23960941  0.64425606  0.56612877     0.39600
C1208       C  0.26116697  0.61674868  0.56731450     0.36400
C1209       C  0.20320359  0.66246546  0.48713915    -0.21100
C1210       C  0.20378471  0.66508104  0.51758798    -0.21100
C1211       C  0.29306254  0.57861723  0.48864207    -0.21100
C1212       C  0.29306906  0.57931671  0.51929202    -0.21100
C1213       C  0.24269168  0.63274792  0.40858643    -0.22100
C1214       C  0.25684930  0.61679834  0.40901825    -0.22100
C1215       C  0.24457377  0.64287975  0.59566933    -0.22100
C1216       C  0.25801192  0.62514602  0.59649393    -0.22100
C1217       C  0.22335712  0.65054395  0.44746425    -0.17500
C1218       C  0.22516871  0.65823304  0.55612360    -0.17500
C1219       C  0.27455568  0.59915378  0.55834228    -0.17500
C1220       C  0.27434293  0.59596176  0.44887094    -0.17500
H1221       H  0.19244330  0.66613674  0.47345383     0.15400
H1222       H  0.19353961  0.67108830  0.53181698     0.15400
H1223       H  0.30286541  0.57006797  0.47483319     0.15400
H1224       H  0.30290304  0.57149580  0.53335988     0.15400
H1225       H  0.23689713  0.64121943  0.38874907     0.13700
H1226       H  0.26392554  0.61062098  0.38953623     0.13700
H1227       H  0.23893260  0.65308386  0.61483047     0.13700
H1228       H  0.26466131  0.61925147  0.61645002     0.13700
H1229       H  0.24151333  0.64855428  0.50121513     0.27000
H1230       H  0.25813399  0.60877991  0.50341244     0.27000
N1231       N  0.77083158  0.84105139  0.50666983    -0.35800
N1232       N  0.75154175  0.86891171  0.55325583    -0.56400
N1233       N  0.72942763  0.89188566  0.50733438    -0.35800
N1234       N  0.74853035  0.86397971  0.46077585    -0.56400
C1235       C  0.78090615  0.83657656  0.53033533     0.27800
C1236       C  0.77947397  0.83422880  0.48172237     0.27800
C1237       C  0.72073871  0.89844602  0.53233830     0.27800
C1238       C  0.71923342  0.89590211  0.48371064     0.27800
C1239       C  0.76295901  0.85648582  0.57097667     0.36400
C1240       C  0.74069104  0.88222774  0.57154644     0.36400
C1241       C  0.75974900  0.85162353  0.44249302     0.36400
C1242       C  0.73747010  0.87732627  0.44299779     0.36400
C1243       C  0.79599501  0.82641543  0.52024843    -0.21100
C1244       C  0.79509137  0.82491084  0.48971822    -0.21100
C1245       C  0.70496696  0.90695154  0.52443868    -0.21100
C1246       C  0.70399520  0.90520938  0.49393658    -0.21100
C1247       C  0.75918950  0.86166753  0.60071851    -0.22100
C1248       C  0.74524803  0.87823772  0.60106252    -0.22100
C1249       C  0.75564768  0.85692880  0.41294443    -0.22100
C1250       C  0.74183304  0.87367707  0.41330063    -0.22100
C1251       C  0.77709522  0.84148544  0.56086017    -0.17500
C1252       C  0.77402549  0.83660647  0.45176060    -0.17500
C1253       C  0.72320337  0.89197041  0.45304775    -0.17500
C1254       C  0.72637206  0.89704355  0.56226658    -0.17500
H1255       H  0.80672076  0.82112806  0.53343790     0.15400
H1256       H  0.80502276  0.81834724  0.47503578     0.15400
H1257       H  0.69501047  0.91326773  0.53918494     0.15400
H1258       H  0.69315337  0.90995634  0.48084555     0.15400
H1259       H  0.76578235  0.85439350  0.62025183     0.13700
H1260       H  0.73905816  0.88602092  0.62089825     0.13700
H1261       H  0.76203446  0.85005508  0.39297068     0.13700
H1262       H  0.73583201  0.88219562  0.39371396     0.13700
H1263       H  0.75843990  0.84639526  0.50754023     0.27000
H1264       H  0.74195922  0.88753781  0.50636284     0.27000
C1265       C  0.32361002  0.57488462  0.34860762     0.16800
C1266       C  0.31604897  0.59522324  0.36719593    -0.32300
C1267       C  0.30467475  0.58520621  0.38853051     0.21200
C1268       C  0.30094233  0.55627347  0.39116133     0.03400
C1269       C  0.30855353  0.53598568  0.37270361    -0.22000
C1270       C  0.31997553  0.54594833  0.35150316     0.12500
S1271       S  0.33761267  0.58252971  0.32106122    -0.05700
C1272       C  0.33863320  0.54633534  0.31358227    -0.09100
C1273       C  0.32864265  0.52945745  0.33160868    -0.25700
S1274       S  0.28662866  0.54837837  0.41801004    -0.02900
C1275       C  0.28569906  0.58439978  0.42586912    -0.16400
C1276       C  0.29597957  0.60151109  0.40856179    -0.14400
H1277       H  0.31887115  0.61783208  0.36507644     0.21000
H1278       H  0.30567023  0.51339402  0.37473958     0.17000
H1279       H  0.32766673  0.50635722  0.33005043     0.19500
H1280       H  0.29685694  0.62460381  0.41038920     0.12900
C1281       C  0.43553221  0.86458350  0.24167938     0.16800
C1282       C  0.42306139  0.88139835  0.22893018    -0.32300
C1283       C  0.41630000  0.90348177  0.24638688     0.21200
C1284       C  0.42161318  0.90846152  0.27531653     0.03400
C1285       C  0.43418812  0.89186941  0.28792368    -0.22000
C1286       C  0.44102081  0.86994118  0.27043814     0.12500
S1287       S  0.44532222  0.83668933  0.22433295    -0.05700
C1288       C  0.45694636  0.83243014  0.25611814    -0.09100
C1289       C  0.45340458  0.85166885  0.27875047    -0.25700
S1290       S  0.41185184  0.93619836  0.29287440    -0.02900
C1291       C  0.40070224  0.94155851  0.26073915    -0.16400
C1292       C  0.40433529  0.92253694  0.23783663    -0.14400
H1293       H  0.41885270  0.87750435  0.20637970     0.21000
H1294       H  0.43849455  0.89592742  0.31038070     0.17000
H1295       H  0.45960362  0.85221444  0.30011068     0.19500
H1296       H  0.39866740  0.92287850  0.21598441     0.12900
C1297       C  0.42049637  0.62036111  0.23879907     0.16800
C1298       C  0.42861031  0.64561001  0.23021891    -0.32300
C1299       C  0.44089879  0.65616668  0.24919670     0.21200
C1300       C  0.44497018  0.64225134  0.27555703     0.03400
C1301       C  0.43684798  0.61703100  0.28414937    -0.22000
C1302       C  0.42456808  0.60647376  0.26515964     0.12500
S1303       S  0.40507879  0.60421194  0.21907806    -0.05700
C1304       C  0.40410858  0.57857416  0.24671745    -0.09100
C1305       C  0.41522882  0.58242526  0.26976765    -0.25700
S1306       S  0.46038424  0.65831173  0.29529683    -0.02900
C1307       C  0.46130454  0.68400557  0.26771153    -0.16400
C1308       C  0.45023591  0.68023070  0.24460749    -0.14400
H1309       H  0.42548181  0.65655388  0.20967149     0.21000
H1310       H  0.43996865  0.60610074  0.30471107     0.17000
H1311       H  0.41626418  0.56856022  0.28909221     0.19500
H1312       H  0.44925668  0.69420442  0.22536270     0.12900
C1313       C  0.67975304  0.96631315  0.37374171     0.16800
C1314       C  0.69026536  0.96491576  0.39847009    -0.32300
C1315       C  0.69683676  0.93810494  0.40609911     0.21200
C1316       C  0.69298265  0.91361668  0.39007482     0.03400
C1317       C  0.68250084  0.91500687  0.36522345    -0.22000
C1318       C  0.67603533  0.94192513  0.35743041     0.12500
S1319       S  0.67072265  0.99694276  0.36071005    -0.05700
C1320       C  0.66192586  0.97681185  0.33278606    -0.09100
C1321       C  0.66579937  0.94783266  0.33386278    -0.25700
S1322       S  0.70210769  0.88312930  0.40333149    -0.02900
C1323       C  0.71160469  0.90378938  0.43029425    -0.16400
C1324       C  0.70750564  0.93262023  0.42907211    -0.14400
H1325       H  0.69327693  0.98395862  0.41112842     0.21000
H1326       H  0.67956894  0.89598803  0.35246275     0.17000
H1327       H  0.66143003  0.93196825  0.31812732     0.19500
H1328       H  0.71219340  0.94874786  0.44420330     0.12900
C1329       C  0.68614034  0.57157466  0.11203061     0.16800
C1330       C  0.67163980  0.56209941  0.12606179    -0.32300
C1331       C  0.67283514  0.55202912  0.15549156     0.21200
C1332       C  0.68778761  0.55147874  0.17039053     0.03400
C1333       C  0.70235700  0.56041505  0.15612750    -0.22000
C1334       C  0.70116101  0.57044306  0.12664252     0.12500
S1335       S  0.68714799  0.58566766  0.07687244    -0.05700
C1336       C  0.70813297  0.58966209  0.08158141    -0.09100
C1337       C  0.71384529  0.58057037  0.10920067    -0.25700
S1338       S  0.68641141  0.54022243  0.20667278    -0.02900
C1339       C  0.66551145  0.53597354  0.20154755    -0.16400
C1340       C  0.66004163  0.54278688  0.17314750    -0.14400
H1341       H  0.65989210  0.56296362  0.11469897     0.21000
H1342       H  0.71406101  0.56002041  0.16766207     0.17000
H1343       H  0.72660199  0.58154057  0.11617780     0.19500
H1344       H  0.64729556  0.54187354  0.16608929     0.12900
C1345       C  0.58218502  0.61688333  0.29490336     0.16800
C1346       C  0.56933172  0.63375128  0.30648000    -0.32300
C1347       C  0.56292565  0.65546953  0.28811185     0.21200
C1348       C  0.56919139  0.66041240  0.25967324     0.03400
C1349       C  0.58200633  0.64360378  0.24816333    -0.22000
C1350       C  0.58825902  0.62172559  0.26633714     0.12500
S1351       S  0.59130160  0.58870990  0.31296973    -0.05700
C1352       C  0.60327130  0.58334309  0.28153980    -0.09100
C1353       C  0.60031170  0.60258160  0.25857612    -0.25700
S1354       S  0.55969416  0.68743387  0.24065462    -0.02900
C1355       C  0.54700149  0.69194693  0.27115022    -0.16400
C1356       C  0.55008259  0.67352903  0.29480390    -0.14400
H1357       H  0.56438391  0.62985223  0.32862213     0.21000
H1358       H  0.58675195  0.64716951  0.22581462     0.17000
H1359       H  0.60643257  0.60220216  0.23702965     0.19500
H1360       H  0.54317746  0.67323688  0.31555720     0.12900
C1361       C  0.55574952  0.88405124  0.27184216     0.16800
C1362       C  0.56225801  0.91036995  0.28086583    -0.32300
C1363       C  0.57645983  0.92016248  0.26622694     0.21200
C1364       C  0.58389255  0.90455512  0.24353288     0.03400
C1365       C  0.57725506  0.87832592  0.23423216    -0.22000
C1366       C  0.56304520  0.86846153  0.24896748     0.12500
S1367       S  0.53880046  0.86835005  0.28737135    -0.05700
C1368       C  0.54150137  0.84054134  0.26269726    -0.09100
C1369       C  0.55484602  0.84336364  0.24351901    -0.25700
S1370       S  0.60146614  0.91975135  0.22950889    -0.02900
C1371       C  0.59864670  0.94734320  0.25446451    -0.16400
C1372       C  0.58482306  0.94481753  0.27247676    -0.14400
H1373       H  0.55660405  0.92253702  0.29875181     0.21000
H1374       H  0.58301391  0.86600722  0.21657658     0.17000
H1375       H  0.55827383  0.82793468  0.22656129     0.19500
H1376       H  0.58128476  0.95991688  0.28969337     0.12900
C1377       C  0.79901612  0.79285438  0.39493428     0.16800
C1378       C  0.80663487  0.77136947  0.37799782    -0.32300
C1379       C  0.81645634  0.78003155  0.35376609     0.21200
C1380       C  0.81840348  0.80876763  0.34648934     0.03400
C1381       C  0.81078477  0.83020856  0.36337539    -0.22000
C1382       C  0.80119251  0.82157781  0.38783990     0.12500
S1383       S  0.78669457  0.78687028  0.42529321    -0.05700
C1384       C  0.78449696  0.82344246  0.42835833    -0.09100
C1385       C  0.79305965  0.83927247  0.40719464    -0.25700
S1386       S  0.83092393  0.81501724  0.31657175    -0.02900
C1387       C  0.83377050  0.77857663  0.31405252    -0.16400
C1388       C  0.82530191  0.76250670  0.33515811    -0.14400
H1389       H  0.80509797  0.74893706  0.38361738     0.21000
H1390       H  0.81240265  0.85265251  0.35786719     0.17000
H1391       H  0.79309430  0.86245281  0.40586287     0.19500
H1392       H  0.82573149  0.73937039  0.33695100     0.12900
C1393       C  0.81398543  0.72361425  0.14289542     0.16800
C1394       C  0.80445909  0.72624234  0.11697411    -0.32300
C1395       C  0.79504930  0.70242578  0.10828871     0.21200
C1396       C  0.79512983  0.67716692  0.12468346     0.03400
C1397       C  0.80457621  0.67459238  0.15059750    -0.22000
C1398       C  0.81395137  0.69835106  0.15926994     0.12500
S1399       S  0.82653322  0.74971764  0.15697801    -0.05700
C1400       C  0.83172235  0.72625380  0.18513063    -0.09100
C1401       C  0.82403641  0.69979425  0.18360266    -0.25700
S1402       S  0.78314035  0.65056197  0.11039076    -0.02900
C1403       C  0.77790698  0.67364205  0.08194333    -0.16400
C1404       C  0.78511738  0.70055793  0.08367117    -0.14400
H1405       H  0.80445903  0.74588929  0.10406683     0.21000
H1406       H  0.80468389  0.65485941  0.16336611     0.17000
H1407       H  0.82590683  0.68238892  0.19925590     0.19500
H1408       H  0.78324658  0.71767352  0.06768490     0.12900
C1409       C  0.17741107  0.67983496  0.34497218     0.16800
C1410       C  0.18600801  0.65819898  0.36001137    -0.32300
C1411       C  0.19539718  0.66618764  0.38484563     0.21200
C1412       C  0.19628271  0.69449515  0.39414442     0.03400
C1413       C  0.18752235  0.71606819  0.37933809    -0.22000
C1414       C  0.17803218  0.70805167  0.35464187     0.12500
S1415       S  0.16564704  0.67460884  0.31400108    -0.05700
C1416       C  0.16134899  0.71073121  0.31429899    -0.09100
C1417       C  0.16868379  0.72589892  0.33725264    -0.25700
S1418       S  0.20864605  0.69998006  0.42426354    -0.02900
C1419       C  0.21253036  0.66368829  0.42460907    -0.16400
C1420       C  0.20459858  0.64830789  0.40243092    -0.14400
H1421       H  0.18545691  0.63613813  0.35260101     0.21000
H1422       H  0.18812714  0.73814455  0.38668459     0.17000
H1423       H  0.16742160  0.74875089  0.34076184     0.19500
H1424       H  0.20556029  0.62535051  0.39938037     0.12900
C1425       C  0.05866094  0.88161962  0.23256128     0.16800
C1426       C  0.06737464  0.85821484  0.22109984    -0.32300
C1427       C  0.07928972  0.84553892  0.23935388     0.21200
C1428       C  0.08243101  0.85560992  0.26788933     0.03400
C1429       C  0.07365506  0.87909238  0.27946313    -0.22000
C1430       C  0.06172823  0.89189128  0.26107296     0.12500
S1431       S  0.04368909  0.89959932  0.21368661    -0.05700
C1432       C  0.04152157  0.92138811  0.24435476    -0.09100
C1433       C  0.05187143  0.91490607  0.26801432    -0.25700
S1434       S  0.09740830  0.83689642  0.28635903    -0.02900
C1435       C  0.09932113  0.81532195  0.25528952    -0.16400
C1436       C  0.08892443  0.82251709  0.23201974    -0.14400
H1437       H  0.06495210  0.85019281  0.19886323     0.21000
H1438       H  0.07601590  0.88701773  0.30175507     0.17000
H1439       H  0.05199990  0.92618249  0.28912679     0.19500
H1440       H  0.08836620  0.81134741  0.21086144     0.12900
C1441       C  0.07912623  0.64054626  0.23853699     0.16800
C1442       C  0.06922318  0.61840626  0.22741258    -0.32300
C1443       C  0.05955396  0.60293797  0.24788776     0.21200
C1444       C  0.05974654  0.60907341  0.27819399     0.03400
C1445       C  0.06970964  0.63118919  0.28935964    -0.22000
C1446       C  0.07929661  0.64683357  0.26879726     0.12500
S1447       S  0.09163074  0.66194771  0.21722733    -0.05700
C1448       C  0.09701958  0.67982710  0.24934253    -0.09100
C1449       C  0.08952830  0.66945233  0.27512131    -0.25700
S1450       S  0.04673366  0.58819794  0.29917961    -0.02900
C1451       C  0.04105959  0.57117346  0.26671721    -0.16400
C1452       C  0.04887612  0.58113389  0.24120049    -0.14400
H1453       H  0.06896185  0.61359051  0.20376979     0.21000
H1454       H  0.06984855  0.63618716  0.31296536     0.17000
H1455       H  0.09152999  0.67793340  0.29731360     0.19500
H1456       H  0.04658286  0.57316693  0.21889838     0.12900
C1457       C  0.93530924  0.60605734  0.24361667     0.16800
C1458       C  0.92438012  0.62490785  0.22964880    -0.32300
C1459       C  0.91470495  0.64252935  0.24791207     0.21200
C1460       C  0.91572456  0.64139341  0.27880077     0.03400
C1461       C  0.92684098  0.62273570  0.29283886    -0.22000
C1462       C  0.93663104  0.60517873  0.27449859     0.12500
S1463       S  0.94785330  0.58267854  0.22517139    -0.05700
C1464       C  0.95512410  0.57178545  0.25933422    -0.09100
C1465       C  0.94814866  0.58556467  0.28370040    -0.25700
S1466       S  0.90280017  0.66467018  0.29680087    -0.02900
C1467       C  0.89632815  0.67640165  0.26227023    -0.16400
C1468       C  0.90363696  0.66257661  0.23832530    -0.14400
H1469       H  0.92346218  0.62581380  0.20554393     0.21000
H1470       H  0.92782529  0.62195809  0.31693556     0.17000
H1471       H  0.95128176  0.58129863  0.30676105     0.19500
H1472       H  0.90119237  0.66731543  0.21507528     0.12900
C1473       C  0.93763796  0.88121223  0.21876161     0.16800
C1474       C  0.92719602  0.86007231  0.20676685    -0.32300
C1475       C  0.91811047  0.84300932  0.22693568     0.21200
C1476       C  0.91944529  0.84690416  0.25754232     0.03400
C1477       C  0.92967315  0.86811374  0.26941200    -0.22000
C1478       C  0.93868244  0.88509379  0.24940454     0.12500
S1479       S  0.95009668  0.90379993  0.19853705    -0.05700
C1480       C  0.95657523  0.91846465  0.23183920    -0.09100
C1481       C  0.94941348  0.90649564  0.25699507    -0.25700
S1482       S  0.90784151  0.82404695  0.27854939    -0.02900
C1483       C  0.90088479  0.80898213  0.24592808    -0.16400
C1484       C  0.90731584  0.82120905  0.22005266    -0.14400
H1485       H  0.92628289  0.85694759  0.18287466     0.21000
H1486       H  0.93065057  0.87113487  0.29331509     0.17000
H1487       H  0.95212866  0.91292243  0.27967888     0.19500
H1488       H  0.90427614  0.81453227  0.19758967     0.12900
C1489       C  0.18197729  0.77895423  0.14305611     0.16800
C1490       C  0.19069597  0.77958976  0.11591905    -0.32300
C1491       C  0.20046195  0.80379527  0.10981947     0.21200
C1492       C  0.20159803  0.82626277  0.12993668     0.03400
C1493       C  0.19318906  0.82534219  0.15734558    -0.22000
C1494       C  0.18332476  0.80126174  0.16333226     0.12500
S1495       S  0.16861447  0.75244296  0.15381932    -0.05700
C1496       C  0.16484097  0.77160313  0.18598320    -0.09100
C1497       C  0.17364850  0.79701610  0.18814237    -0.25700
S1498       S  0.21349230  0.85422419  0.11787851    -0.02900
C1499       C  0.21721948  0.83533655  0.08543535    -0.16400
C1500       C  0.20948048  0.80879158  0.08432100    -0.14400
H1501       H  0.18964114  0.76225809  0.09998593     0.21000
H1502       H  0.19402794  0.84290098  0.17305483     0.17000
H1503       H  0.17269642  0.81195314  0.20655624     0.19500
H1504       H  0.21040515  0.79398388  0.06579446     0.12900
C1505       C  0.29804804  0.94361950  0.12615303     0.16800
C1506       C  0.30160768  0.95805767  0.15276496    -0.32300
C1507       C  0.31807157  0.96570104  0.15797573     0.21200
C1508       C  0.33041929  0.95978091  0.13736153     0.03400
C1509       C  0.32687347  0.94513237  0.11084413    -0.22000
C1510       C  0.31044977  0.93702025  0.10590254     0.12500
S1511       S  0.27886063  0.93256571  0.11566281    -0.05700
C1512       C  0.28765365  0.91850290  0.08375547    -0.09100
C1513       C  0.30459450  0.92233496  0.08170928    -0.25700
S1514       S  0.34960446  0.97096856  0.14787820    -0.02900
C1515       C  0.34092765  0.98305758  0.18067899    -0.16400
C1516       C  0.32406772  0.97883525  0.18302128    -0.14400
H1517       H  0.29198914  0.96291533  0.16881995     0.21000
H1518       H  0.33650603  0.94007987  0.09488285     0.17000
H1519       H  0.31218149  0.91497969  0.06329989     0.19500
H1520       H  0.31664172  0.98477991  0.20219014     0.12900
C1521       C  0.33027978  0.95561500  0.86902550     0.16800
C1522       C  0.32714399  0.94285904  0.89695309    -0.32300
C1523       C  0.31089208  0.93409958  0.90323692     0.21200
C1524       C  0.29832494  0.93833266  0.88283324     0.03400
C1525       C  0.30148484  0.95078612  0.85489254    -0.22000
C1526       C  0.31773257  0.95907188  0.84840114     0.12500
S1527       S  0.34912411  0.96744193  0.85676417    -0.05700
C1528       C  0.34001851  0.97655101  0.82334239    -0.09100
C1529       C  0.32327214  0.97078350  0.82207414    -0.25700
S1530       S  0.27940943  0.92695540  0.89471974    -0.02900
C1531       C  0.28845183  0.91559494  0.92745336    -0.16400
C1532       C  0.30533516  0.92082917  0.92881993    -0.14400
H1533       H  0.33694445  0.93973102  0.91296714     0.21000
H1534       H  0.29170066  0.95372300  0.83880542     0.17000
H1535       H  0.31558002  0.97476786  0.80280574     0.19500
H1536       H  0.31310233  0.91523208  0.94754466     0.12900
C1537       C  0.31520611  0.53087003  0.64776804     0.16800
C1538       C  0.30332420  0.52988301  0.62504408    -0.32300
C1539       C  0.29864448  0.55596121  0.61179515     0.21200
C1540       C  0.30558733  0.58177004  0.62062538     0.03400
C1541       C  0.31733802  0.58274734  0.64339430    -0.22000
C1542       C  0.32190629  0.55680569  0.65675729     0.12500
S1543       S  0.32280947  0.50178156  0.66655166    -0.05700
C1544       C  0.33497661  0.52498010  0.68679491    -0.09100
C1545       C  0.33314672  0.55357204  0.67920965    -0.25700
S1546       S  0.29859622  0.61101703  0.60162576    -0.02900
C1547       C  0.28583567  0.58843270  0.58194618    -0.16400
C1548       C  0.28725373  0.55966855  0.58951184    -0.14400
H1549       H  0.29798402  0.50972430  0.61799703     0.21000
H1550       H  0.32271223  0.60289861  0.65039000     0.17000
H1551       H  0.33985231  0.57109220  0.68938102     0.19500
H1552       H  0.28030785  0.54250217  0.57923450     0.12900
C1553       C  0.43231488  0.85484968  0.76057655     0.16800
C1554       C  0.42127954  0.87403305  0.77398503    -0.32300
C1555       C  0.41256235  0.89268038  0.75525476     0.21200
C1556       C  0.41446132  0.89194734  0.72446760     0.03400
C1557       C  0.42534755  0.87247594  0.71100875    -0.22000
C1558       C  0.43432844  0.85419047  0.72979402     0.12500
S1559       S  0.44475466  0.83172112  0.77958784    -0.05700
C1560       C  0.45290040  0.82129394  0.74574382    -0.09100
C1561       C  0.44614760  0.83487389  0.72113131    -0.25700
S1562       S  0.40334444  0.91739032  0.70583758    -0.02900
C1563       C  0.39633541  0.92939912  0.73994173    -0.16400
C1564       C  0.40211628  0.91403658  0.76424085    -0.14400
H1565       H  0.41988898  0.87493403  0.79803169     0.21000
H1566       H  0.42708284  0.87214142  0.68701949     0.17000
H1567       H  0.44993731  0.83116548  0.69824482     0.19500
H1568       H  0.39921393  0.91880307  0.78733999     0.12900
C1569       C  0.44217395  0.63125002  0.72674031     0.16800
C1570       C  0.43445153  0.60572583  0.71819447    -0.32300
C1571       C  0.42193944  0.59495857  0.73676589     0.21200
C1572       C  0.41722094  0.60893609  0.76273152     0.03400
C1573       C  0.42502531  0.63445922  0.77141169    -0.22000
C1574       C  0.43759459  0.64523116  0.75280142     0.12500
S1575       S  0.45769958  0.64756093  0.70720677    -0.05700
C1576       C  0.45822212  0.67335525  0.73461963    -0.09100
C1577       C  0.44676895  0.66953286  0.75741027    -0.25700
S1578       S  0.40144117  0.59249174  0.78169721    -0.02900
C1579       C  0.40129789  0.56659738  0.75429621    -0.16400
C1580       C  0.41292727  0.57061847  0.73192949    -0.14400
H1581       H  0.43802953  0.59473301  0.69789951     0.21000
H1582       H  0.42144234  0.64545554  0.79169880     0.17000
H1583       H  0.44544948  0.68357312  0.77650260     0.19500
H1584       H  0.41453853  0.55665733  0.71283890     0.12900
C1585       C  0.68823412  0.54771690  0.84091278     0.16800
C1586       C  0.70289494  0.55781807  0.85376390    -0.32300
C1587       C  0.70201444  0.56837741  0.88308987     0.21200
C1588       C  0.68719812  0.56910167  0.89866027     0.03400
C1589       C  0.67267195  0.55868618  0.88601250    -0.22000
C1590       C  0.67356535  0.54786259  0.85697382     0.12500
S1591       S  0.68634201  0.53507882  0.80527335    -0.05700
C1592       C  0.66568784  0.52952008  0.81257528    -0.09100
C1593       C  0.66065378  0.53714046  0.84097298    -0.25700
S1594       S  0.68838312  0.58354986  0.93341087    -0.02900
C1595       C  0.70922921  0.58804799  0.92753587    -0.16400
C1596       C  0.71478403  0.57913366  0.89966236    -0.14400
H1597       H  0.71441015  0.55764426  0.84142514     0.21000
H1598       H  0.66112472  0.55915197  0.89824727     0.17000
H1599       H  0.64808348  0.53577630  0.84914340     0.19500
H1600       H  0.72745307  0.58048751  0.89202613     0.12900
C1601       C  0.70005365  0.94348504  0.61491336     0.16800
C1602       C  0.69164646  0.96583342  0.62930120    -0.32300
C1603       C  0.67990367  0.95844722  0.65111995     0.21200
C1604       C  0.67672979  0.93004737  0.65837164     0.03400
C1605       C  0.68515093  0.90769277  0.64401753    -0.22000
C1606       C  0.69685357  0.91508192  0.62214425     0.12500
S1607       S  0.71437494  0.94800223  0.58722340    -0.05700
C1608       C  0.71606108  0.91125732  0.58535403    -0.09100
C1609       C  0.70603749  0.89643834  0.60524385    -0.25700
S1610       S  0.66220174  0.92554526  0.68569261    -0.02900
C1611       C  0.66036838  0.96230909  0.68744113    -0.16400
C1612       C  0.67049004  0.97709314  0.66766523    -0.14400
H1613       H  0.69409342  0.98801038  0.62362359     0.21000
H1614       H  0.68265066  0.88550829  0.64959219     0.17000
H1615       H  0.70527616  0.87330613  0.60672114     0.19500
H1616       H  0.67017389  0.50690316  0.65992419     0.12900
C1617       C  0.58605362  0.61743619  0.75593729     0.16800
C1618       C  0.57683340  0.64027686  0.76758302    -0.32300
C1619       C  0.56521070  0.65330858  0.74886180     0.21200
C1620       C  0.56291132  0.64407092  0.71974488     0.03400
C1621       C  0.57235462  0.62151507  0.70791689    -0.22000
C1622       C  0.58395543  0.60840150  0.72670014     0.12500
S1623       S  0.59992310  0.59772300  0.77577645    -0.05700
C1624       C  0.60307760  0.57713862  0.74437074    -0.09100
C1625       C  0.59385303  0.58538954  0.71979918    -0.25700
S1626       S  0.54753055  0.66164053  0.70122130    -0.02900
C1627       C  0.54424224  0.68173315  0.73295967    -0.16400
C1628       C  0.55461009  0.67506621  0.75650762    -0.14400
H1629       H  0.57839877  0.64717756  0.79047581     0.21000
H1630       H  0.57049403  0.61411972  0.68527085     0.17000
H1631       H  0.59394640  0.57452584  0.69844684     0.19500
H1632       H  0.55408524  0.68510041  0.77827861     0.12900
C1633       C  0.57876424  0.89645305  0.77410729     0.16800
C1634       C  0.57112873  0.87106457  0.78390408    -0.32300
C1635       C  0.55823890  0.86003359  0.76645913     0.21200
C1636       C  0.55305266  0.87391808  0.74073490     0.03400
C1637       C  0.56047216  0.89943011  0.73128636    -0.22000
C1638       C  0.57344979  0.91019283  0.74841414     0.12500
S1639       S  0.59536494  0.91247886  0.79068380    -0.05700
C1640       C  0.59505799  0.93770926  0.76252017    -0.09100
C1641       C  0.58265153  0.93391888  0.74181433    -0.25700
S1642       S  0.53760309  0.85700740  0.72208498    -0.02900
C1643       C  0.53809400  0.83080817  0.74911512    -0.16400
C1644       C  0.54961110  0.83514131  0.77146123    -0.14400
H1645       H  0.57528440  0.86007649  0.80380622     0.21000
H1646       H  0.55652728  0.91012554  0.71106393     0.17000
H1647       H  0.58077165  0.94735583  0.72237779     0.19500
H1648       H  0.55152220  0.82085873  0.79020740     0.12900
C1649       C  0.79491638  0.67873594  0.88089450     0.16800
C1650       C  0.80426934  0.67639155  0.85463182    -0.32300
C1651       C  0.81506865  0.69892050  0.84755227     0.21200
C1652       C  0.81644033  0.72287298  0.86566852     0.03400
C1653       C  0.80693478  0.72535151  0.89182867    -0.22000
C1654       C  0.79619890  0.70268255  0.89903736     0.12500
S1655       S  0.78172781  0.65307815  0.89396966    -0.05700
C1656       C  0.77789156  0.67465801  0.92445881    -0.09100
C1657       C  0.78634528  0.70058094  0.92398244    -0.25700
S1658       S  0.83057195  0.74754041  0.85335885    -0.02900
C1659       C  0.83462007  0.72532478  0.82350838    -0.16400
C1660       C  0.82543111  0.70023852  0.82332668    -0.14400
H1661       H  0.80334651  0.65761661  0.84054599     0.21000
H1662       H  0.80803213  0.74392939  0.90614648     0.17000
H1663       H  0.78554012  0.71675055  0.94124407     0.19500
H1664       H  0.82638358  0.68370529  0.80645926     0.12900
C1665       C  0.80899484  0.82591280  0.62230810     0.16800
C1666       C  0.82031207  0.82739717  0.64580340    -0.32300
C1667       C  0.82576894  0.80152689  0.65824601     0.21200
C1668       C  0.82042404  0.77525466  0.64751033     0.03400
C1669       C  0.80912549  0.77375210  0.62391274    -0.22000
C1670       C  0.80347127  0.79967875  0.61174359     0.12500
S1671       S  0.80054566  0.85493422  0.60489427    -0.05700
C1672       C  0.78914031  0.83151887  0.58356159    -0.09100
C1673       C  0.79209591  0.80277415  0.58937799    -0.25700
S1674       S  0.82851139  0.74636970  0.66584762    -0.02900
C1675       C  0.83898200  0.77001350  0.68843835    -0.16400
C1676       C  0.83637877  0.79864713  0.68177481    -0.14400
H1677       H  0.82451516  0.84785165  0.65429343     0.21000
H1678       H  0.80477403  0.75330091  0.61566424     0.17000
H1679       H  0.78605497  0.78516905  0.57808497     0.19500
H1680       H  0.84192716  0.81642674  0.69359660     0.12900
C1681       C  0.18612290  0.81189441  0.84651467     0.16800
C1682       C  0.19623546  0.83298158  0.85935288    -0.32300
C1683       C  0.20335655  0.82684590  0.88719045     0.21200
C1684       C  0.20056564  0.80085989  0.90144966     0.03400
C1685       C  0.19043824  0.77991367  0.88869093    -0.22000
C1686       C  0.18327749  0.78605566  0.86102526     0.12500
S1687       S  0.17625201  0.81498263  0.81301537    -0.05700
C1688       C  0.16819132  0.78117541  0.81882448    -0.09100
C1689       C  0.17294994  0.76841593  0.84532801    -0.25700
S1690       S  0.21018674  0.79734464  0.93500737    -0.02900
C1691       C  0.21790919  0.83147952  0.93023642    -0.16400
C1692       C  0.21337333  0.84455260  0.90361685    -0.14400
H1693       H  0.19840171  0.85326846  0.84821147     0.21000
H1694       H  0.18818213  0.75970341  0.89992718     0.17000
H1695       H  0.16901286  0.74738094  0.85276891     0.19500
H1696       H  0.21704086  0.86595610  0.89691850     0.12900
C1697       C  0.17822642  0.68423670  0.65820009     0.16800
C1698       C  0.18657234  0.66330357  0.64173939    -0.32300
C1699       C  0.19630778  0.67246230  0.61767393     0.21200
C1700       C  0.19765158  0.70120995  0.61006366     0.03400
C1701       C  0.18904701  0.72219387  0.62626127    -0.22000
C1702       C  0.17932501  0.71300108  0.65052219     0.12500
S1703       S  0.16649793  0.67738048  0.68907051    -0.05700
C1704       C  0.16284519  0.71361464  0.69166370    -0.09100
C1705       C  0.17034287  0.73002072  0.66956581    -0.25700
S1706       S  0.21057131  0.70776458  0.58052103    -0.02900
C1707       C  0.21417292  0.67139907  0.57875404    -0.16400
C1708       C  0.20563963  0.65526603  0.59964504    -0.14400
H1709       H  0.18573021  0.64085203  0.64774263     0.21000
H1710       H  0.19006596  0.74467599  0.62048941     0.17000
H1711       H  0.16954920  0.75313363  0.66793258     0.19500
H1712       H  0.20636777  0.63216505  0.60160651     0.12900
C1713       C  0.06419006  0.88535128  0.74308821     0.16800
C1714       C  0.07428881  0.86465829  0.72960107    -0.32300
C1715       C  0.08325571  0.84639175  0.74839137     0.21200
C1716       C  0.08224001  0.84870587  0.77923179     0.03400
C1717       C  0.07221017  0.86944287  0.79270642    -0.22000
C1718       C  0.06321369  0.88762309  0.77394228     0.12500
S1719       S  0.05193656  0.90894018  0.72426186    -0.05700
C1720       C  0.04542522  0.92183118  0.75831227    -0.09100
C1721       C  0.05248261  0.90863293  0.78282926    -0.25700
S1722       S  0.09397462  0.82454795  0.79818813    -0.02900
C1723       C  0.10040169  0.81121403  0.76425296    -0.16400
C1724       C  0.09369881  0.82483679  0.73961894    -0.14400
H1725       H  0.07502763  0.86274433  0.70553443     0.21000
H1726       H  0.07136834  0.87119578  0.81677893     0.17000
H1727       H  0.04961045  0.91375679  0.80584953     0.19500
H1728       H  0.09634186  0.81930820  0.71661252     0.12900
C1729       C  0.06077960  0.61218097  0.75108667     0.16800
C1730       C  0.06814358  0.63740391  0.74058700    -0.32300
C1731       C  0.08094893  0.64917832  0.75747308     0.21200
C1732       C  0.08628420  0.63650003  0.78372747     0.03400
C1733       C  0.07887878  0.61116808  0.79431349    -0.22000
C1734       C  0.06601022  0.59932500  0.77734667     0.12500
S1735       S  0.04482884  0.59512494  0.73393465    -0.05700
C1736       C  0.04504951  0.57038176  0.76246784    -0.09100
C1737       C  0.05701459  0.57512385  0.78397950    -0.25700
S1738       S  0.10226302  0.65423607  0.80050982    -0.02900
C1739       C  0.10169065  0.67875062  0.77167448    -0.16400
C1740       C  0.08966759  0.67340505  0.75055490    -0.14400
H1741       H  0.06404234  0.64746778  0.72011915     0.21000
H1742       H  0.08295239  0.60115765  0.81481984     0.17000
H1743       H  0.05873312  0.56197425  0.80366250     0.19500
H1744       H  0.08758167  0.68635672  0.73083505     0.12900
C1745       C  0.93916271  0.60602269  0.78283546     0.16800
C1746       C  0.92782145  0.62558004  0.79474556    -0.32300
C1747       C  0.91838615  0.64163327  0.77459261     0.21200
C1748       C  0.91999270  0.63813412  0.74395661     0.03400
C1749       C  0.93129348  0.61854082  0.73205412    -0.22000
C1750       C  0.94087399  0.60277329  0.75217626     0.12500
S1751       S  0.95188796  0.58467173  0.80345458    -0.05700
C1752       C  0.95965455  0.57158352  0.77036167    -0.09100
C1753       C  0.95266818  0.58303909  0.74488955    -0.25700
S1754       S  0.90764641  0.66001114  0.72325726    -0.02900
C1755       C  0.90043347  0.67432079  0.75621782    -0.16400
C1756       C  0.90715288  0.66241446  0.78176730    -0.14400
H1757       H  0.92652880  0.62837765  0.81864517     0.21000
H1758       H  0.93269225  0.61593165  0.70814901     0.17000
H1759       H  0.95597270  0.57698750  0.72230653     0.19500
H1760       H  0.90419650  0.66899000  0.80434792     0.12900
C1761       C  0.93823413  0.88547144  0.77904888     0.16800
C1762       C  0.92560535  0.86818236  0.79081573    -0.32300
C1763       C  0.92001466  0.84522963  0.77334973     0.21200
C1764       C  0.92668963  0.83978665  0.74535535     0.03400
C1765       C  0.93926284  0.85716053  0.73350709    -0.22000
C1766       C  0.94488592  0.88005633  0.75102270     0.12500
S1767       S  0.94687089  0.91400018  0.79701882    -0.05700
C1768       C  0.95958614  0.91869397  0.76648672    -0.09100
C1769       C  0.95717149  0.89911270  0.74365393    -0.25700
S1770       S  0.91819678  0.81101277  0.72762434    -0.02900
C1771       C  0.90540923  0.80635248  0.75810183    -0.16400
C1772       C  0.90778733  0.82606169  0.78083139    -0.14400
H1773       H  0.92040197  0.87238946  0.81268376     0.21000
H1774       H  0.94446791  0.85295327  0.71163812     0.17000
H1775       H  0.96410165  0.89881348  0.72292586     0.19500
H1776       H  0.90082731  0.82654059  0.80152267     0.12900
loop_ 
_geom_bond_atom_site_label_1 
_geom_bond_atom_site_label_2 
_geom_bond_distance 
_geom_bond_site_symmetry_2 
_ccdc_geom_bond_type 
N1            C6   1.355   1_455  A
N1            C5   1.354       .  A
N1           H33   1.035       .  S
N2           C10   1.352       .  A
N2          C897   1.354       .  A
N3            C8   1.355   1_455  A
N3            C7   1.353       .  A
N3           H34   1.035       .  S
N4           C12   1.352       .  A
N4          C899   1.351       .  A
C5           C13   1.388       .  A
C5           C21   1.419       .  A
C6           C22   1.417       .  A
C6           C14   1.387       .  A
C7           C15   1.388       .  A
C7           C24   1.418       .  A
C8           C23   1.418       .  A
C8           C16   1.387       .  A
C9          N890   1.353   1_545  A
C9           C21   1.416       .  A
C9           C17   1.386       .  A
C10          C24   1.416       .  A
C10          C18   1.387       .  A
C11         N892   1.352   1_545  A
C11          C19   1.386       .  A
C11          C22   1.415       .  A
C12          C20   1.386       .  A
C12          C23   1.413       .  A
C13          C14   1.373   1_455  A
C13          H25   1.082       .  S
C14          H26   1.082       .  S
C15          C16   1.373   1_455  A
C15          H27   1.082       .  S
C16          H28   1.082       .  S
C17         C906   1.374   1_545  A
C17          H29   1.082       .  S
C18         C905   1.373       .  A
C18          H30   1.082       .  S
C19         C908   1.372   1_545  A
C19          H31   1.082       .  S
C20         C907   1.371       .  A
C20          H32   1.082       .  S
C21         C848   1.485       .  S
C22         C864   1.482       .  S
C23         C880   1.484       .  S
C24         C832   1.479       .  S
In35         O37   2.219       .  S
In35         O38   2.266       .  S
In35         O46   2.235       .  S
In35         O40   2.256       .  S
In35         O42   2.260       .  S
In35         O43   2.256       .  S
In35         O44   2.230       .  S
In35         O47   2.244       .  S
C36         C851   1.470       .  S
C36          O42   1.262       .  A
C36          O44   1.260       .  A
O37          C45   1.260       .  A
O38          C45   1.263       .  A
C39         C800   1.468       .  S
C39          O46   1.259       .  A
C39          O40   1.262       .  A
C41         C816   1.470       .  S
C41          O43   1.261       .  A
C41          O47   1.258       .  A
C45         C835   1.469       .  S
In48         O50   2.260       .  S
In48         O51   2.242       .  S
In48         O59   2.227       .  S
In48         O53   2.259       .  S
In48         O55   2.254       .  S
In48         O56   2.268       .  S
In48         O57   2.233       .  S
In48         O60   2.245       .  S
C49         C883   1.469       .  S
C49          O55   1.264       .  A
C49          O57   1.260       .  A
O50          C58   1.261       .  A
O51          C58   1.261       .  A
C52         C771   1.469       .  S
C52          O59   1.260       .  A
C52          O53   1.263       .  A
C54         C787   1.475       .  S
C54          O56   1.262       .  A
C54          O60   1.259       .  A
C58         C867   1.472       .  S
In61         O63   2.226       .  S
In61         O64   2.290       .  S
In61         O72   2.244       .  S
In61         O66   2.256       .  S
In61         O69   2.265       .  S
In61        O956   2.256   1_545  S
In61        O958   2.229   1_545  S
In61        O961   2.240   1_545  S
C62         C752   1.469       .  S
C62          O68   1.263       .  A
C62          O70   1.260       .  A
O63          C71   1.256       .  A
O64          C71   1.263       .  A
C65         C704   1.469       .  S
C65          O72   1.259       .  A
C65          O66   1.261       .  A
C67         C723   1.466       .  S
C67          O73   1.259       .  A
C67         O957   1.265       .  A
O68        In949   2.253       .  S
O69         C955   1.265   1_545  A
O70        In949   2.235       .  S
C71         C736   1.475       .  S
O73        In949   2.224       .  S
N74          C79   1.354       .  A
N74          C78   1.353       .  A
N74         H106   1.038       .  S
N75          C82   1.353       .  A
N75          C83   1.353       .  A
N76          C81   1.356       .  A
N76          C80   1.354       .  A
N76         H107   1.039       .  S
N77          C84   1.352       .  A
N77          C85   1.352       .  A
C78          C86   1.388       .  A
C78          C94   1.416       .  A
C79          C95   1.414       .  A
C79          C87   1.387       .  A
C80          C88   1.387       .  A
C80          C97   1.416       .  A
C81          C96   1.417       .  A
C81          C89   1.387       .  A
C82          C94   1.416       .  A
C82          C90   1.387       .  A
C83          C97   1.413       .  A
C83          C91   1.385       .  A
C84          C92   1.386       .  A
C84          C95   1.412       .  A
C85          C93   1.387       .  A
C85          C96   1.415       .  A
C86          C87   1.375       .  A
C86          H98   1.082       .  S
C87          H99   1.082       .  S
C88          C89   1.375       .  A
C88         H100   1.082       .  S
C89         H101   1.082       .  S
C90          C91   1.373       .  A
C90         H102   1.082       .  S
C91         H103   1.082       .  S
C92          C93   1.374       .  A
C92         H104   1.082       .  S
C93         H105   1.082       .  S
C94         C755   1.484       .  S
C95         C672   1.479       .  S
C96         C688   1.488       .  S
C97         C739   1.483       .  S
In108       O113   2.259   1_545  S
In108       O115   2.263       .  S
In108       O116   2.257   1_545  S
In108       O117   2.252       .  S
In108       O120   2.248       .  S
In108       O998   2.239   1_545  S
In108       O999   2.262   1_545  S
In108      O1007   2.255   1_545  S
C109        C691   1.476       .  S
C109        O115   1.263       .  A
C109        O117   1.260       .  A
O110       In996   2.237       .  S
O110        C118   1.257       .  A
O111       In996   2.265       .  S
O111        C118   1.260       .  A
C112        C640   1.470       .  S
C112        O119   1.259       .  A
C112       O1001   1.260       .  A
O113       C1000   1.261       .  A
C114        C656   1.472       .  S
C114        O116   1.262   1_545  A
C114        O120   1.261       .  A
C118        C675   1.469       .  S
O119       In996   2.248       .  S
N121        C126   1.352       .  A
N121        C125   1.354       .  A
N121        H153   1.042       .  S
N122        C129   1.352       .  A
N122        C130   1.350   1_554  A
N123        C128   1.353       .  A
N123        C127   1.352       .  A
N123        H154   1.041       .  S
N124        C131   1.351       .  A
N124        C132   1.352   1_554  A
C125        C133   1.385       .  A
C125        C141   1.413       .  A
C126        C142   1.415       .  A
C126        C134   1.388       .  A
C127        C135   1.387       .  A
C127        C144   1.415       .  A
C128        C143   1.414       .  A
C128        C136   1.387       .  A
C129        C141   1.410       .  A
C129        C137   1.385       .  A
C130        C144   1.411       .  A
C130        C138   1.386       .  A
C131        C139   1.387       .  A
C131        C142   1.414       .  A
C132        C140   1.385       .  A
C132        C143   1.412       .  A
C133        C134   1.377       .  A
C133        H145   1.082       .  S
C134        H146   1.082       .  S
C135        C136   1.379       .  A
C135        H147   1.082       .  S
C136        H148   1.082       .  S
C137        C138   1.372   1_554  A
C137        H149   1.082       .  S
C138        H150   1.082       .  S
C139        C140   1.373   1_554  A
C139        H151   1.082       .  S
C140        H152   1.082       .  S
C141        C611   1.490       .  S
C142        C624   1.488       .  S
C143        C643   1.487       .  S
C144        C803   1.485       .  S
N155        C160   1.354       .  A
N155        C159   1.355   1_655  A
N155        H187   1.034       .  S
N156        C164   1.353   1_565  A
N156       C1051   1.352       .  A
N157        C162   1.353       .  A
N157        C161   1.354   1_655  A
N157        H188   1.037       .  S
N158        C166   1.351   1_565  A
N158       C1053   1.352       .  A
C159        C167   1.388       .  A
C159        C175   1.419       .  A
C160        C176   1.420       .  A
C160        C168   1.388       .  A
C161        C169   1.388       .  A
C161        C178   1.416       .  A
C162        C177   1.416       .  A
C162        C170   1.388       .  A
C163       N1044   1.353       .  A
C163        C175   1.416       .  A
C163        C171   1.387       .  A
C164        C178   1.414       .  A
C164        C172   1.386       .  A
C165       N1046   1.352       .  A
C165        C173   1.388       .  A
C165        C176   1.416       .  A
C166        C174   1.386       .  A
C166        C177   1.414       .  A
C167        C168   1.376   1_455  A
C167        H179   1.082       .  S
C168        H180   1.082       .  S
C169        C170   1.373   1_455  A
C169        H181   1.082       .  S
C170        H182   1.082       .  S
C171       C1060   1.373       .  A
C171        H183   1.082       .  S
C172       C1059   1.375   1_545  A
C172        H184   1.082       .  S
C173       C1062   1.372       .  A
C173        H185   1.082       .  S
C174       C1061   1.374   1_545  A
C174        H186   1.082       .  S
C175        C544   1.483       .  S
C176        C592   1.482       .  S
C177        C576   1.478       .  S
C178        C563   1.482       .  S
In189       O191   2.239       .  S
In189       O192   2.263       .  S
In189       O200   2.254       .  S
In189       O194   2.250       .  S
In189       O196   2.251       .  S
In189       O197   2.259       .  S
In189       O198   2.247       .  S
In189       O201   2.244       .  S
C190        C560   1.470       .  S
C190        O196   1.260       .  A
C190        O198   1.260       .  A
O191        C199   1.259       .  A
O192        C199   1.262       .  A
C193        C608   1.473       .  S
C193        O200   1.261       .  A
C193        O194   1.260       .  A
C195        C547   1.471       .  S
C195        O197   1.261       .  A
C195        O201   1.259       .  A
C199        C528   1.471       .  S
In202       O204   2.255       .  S
In202       O205   2.252       .  S
In202       O213   2.227       .  S
In202       O207   2.270       .  S
In202       O209   2.248       .  S
In202       O210   2.254       .  S
In202       O211   2.243       .  S
In202       O214   2.231       .  S
C203        C579   1.471       .  S
C203        O209   1.263       .  A
C203        O211   1.262       .  A
O204        C212   1.261       .  A
O205        C212   1.261       .  A
C206        C499   1.470       .  S
C206        O213   1.257       .  A
C206        O207   1.263       .  A
C208        C595   1.469       .  S
C208        O210   1.264       .  A
C208        O214   1.260       .  A
C212        C512   1.474       .  S
In215       O217   2.242       .  S
In215       O218   2.247       .  S
In215       O220   2.264       .  S
In215       O222   2.266       .  S
In215       O224   2.252       .  S
In215      O1114   2.248   1_545  S
In215      O1111   2.248   1_545  S
In215      O1115   2.229   1_545  S
C216        C464   1.475       .  S
C216        O222   1.261       .  A
C216        O224   1.258       .  A
O217        C225   1.261       .  A
O218        C225   1.262       .  A
C219        C432   1.475       .  S
C219        O226   1.259       .  A
C219       O1108   1.264       .  A
O220       C1107   1.264   1_545  A
C221        C483   1.464       .  S
C221        O223   1.260       .  A
C221        O227   1.258       .  A
O223      In1103   2.256       .  S
C225        C451   1.468       .  S
O226      In1103   2.247       .  S
O227      In1103   2.226       .  S
In228       O230   2.273       .  S
In228       O231   2.244       .  S
In228       O233   2.252       .  S
In228       O235   2.271       .  S
In228       O237   2.236       .  S
In228      O1127   2.244   1_545  S
In228      O1124   2.261   1_545  S
In228      O1128   2.250   1_545  S
C229        C416   1.474       .  S
C229        O235   1.263       .  A
C229        O237   1.258       .  A
O230        C238   1.264       .  A
O231        C238   1.260       .  A
C232        C627   1.470       .  S
C232        O239   1.260       .  A
C232       O1121   1.260       .  A
O233       C1120   1.262   1_545  A
C234        C403   1.473       .  S
C234        O236   1.261       .  A
C234        O240   1.257       .  A
O236      In1116   2.264       .  S
C238        C384   1.478       .  S
O239      In1116   2.255       .  S
O240      In1116   2.249       .  S
N241        C246   1.355       .  A
N241        C245   1.354       .  A
N241        H273   1.038       .  S
N242        C249   1.353       .  A
N242        C250   1.353       .  A
N243        C248   1.355       .  A
N243        C247   1.355       .  A
N243        H274   1.039       .  S
N244        C251   1.354       .  A
N244        C252   1.353       .  A
C245        C253   1.387       .  A
C245        C261   1.418       .  A
C246        C262   1.418       .  A
C246        C254   1.388       .  A
C247        C255   1.386       .  A
C247        C264   1.414       .  A
C248        C263   1.418       .  A
C248        C256   1.388       .  A
C249        C261   1.415       .  A
C249        C257   1.388       .  A
C250        C264   1.412       .  A
C250        C258   1.385       .  A
C251        C259   1.386       .  A
C251        C262   1.416       .  A
C252        C260   1.387       .  A
C252        C263   1.417       .  A
C253        C254   1.372       .  A
C253        H265   1.082       .  S
C254        H266   1.081       .  S
C255        C256   1.375       .  A
C255        H267   1.082       .  S
C256        H268   1.082       .  S
C257        C258   1.372       .  A
C257        H269   1.082       .  S
C258        H270   1.082       .  S
C259        C260   1.375       .  A
C259        H271   1.082       .  S
C260        H272   1.082       .  S
C261        C480   1.486       .  S
C262        C400   1.486       .  S
C263        C419   1.489       .  S
C264        C467   1.485       .  S
N275        C280   1.351       .  A
N275        C279   1.354       .  A
N275        H307   1.042       .  S
N276        C283   1.349   1_554  A
N276        C284   1.349       .  A
N277        C282   1.351       .  A
N277        C281   1.353       .  A
N277        H308   1.042       .  S
N278        C285   1.351   1_554  A
N278        C286   1.353       .  A
C279        C287   1.386       .  A
C279        C295   1.415       .  A
C280        C296   1.414       .  A
C280        C288   1.387       .  A
C281        C289   1.388       .  A
C281        C298   1.416       .  A
C282        C297   1.410       .  A
C282        C290   1.385       .  A
C283        C295   1.409       .  A
C283        C291   1.386       .  A
C284        C298   1.410       .  A
C284        C292   1.386       .  A
C285        C293   1.387       .  A
C285        C296   1.414       .  A
C286        C294   1.385       .  A
C286        C297   1.412       .  A
C287        C288   1.378       .  A
C287        H299   1.082       .  S
C288        H300   1.082       .  S
C289        C290   1.377       .  A
C289        H301   1.082       .  S
C290        H302   1.082       .  S
C291        C292   1.373   1_556  A
C291        H303   1.082       .  S
C292        H304   1.082       .  S
C293        C294   1.374   1_556  A
C293        H305   1.082       .  S
C294        H306   1.082       .  S
C295        C707   1.488       .  S
C296        C768   1.486       .  S
C297        C515   1.487       .  S
C298        C448   1.489       .  S
N309        C314   1.355       .  A
N309        C313   1.353       .  A
N309        H341   1.039       .  S
N310        C317   1.354       .  A
N310        C318   1.356       .  A
N311        C316   1.355       .  A
N311        C315   1.358       .  A
N311        H342   1.033       .  S
N312        C319   1.353       .  A
N312        C320   1.352       .  A
C313        C321   1.388       .  A
C313        C329   1.416       .  A
C314        C330   1.415       .  A
C314        C322   1.386       .  A
C315        C323   1.388       .  A
C315        C332   1.426       .  A
C316        C331   1.423       .  A
C316        C324   1.387       .  A
C317        C329   1.419       .  A
C317        C325   1.385       .  A
C318        C332   1.423       .  A
C318        C326   1.388       .  A
C319        C327   1.385       .  A
C319        C330   1.414       .  A
C320        C328   1.388       .  A
C320        C331   1.418       .  A
C321        C322   1.374       .  A
C321        H333   1.082       .  S
C322        H334   1.082       .  S
C323        C324   1.375       .  A
C323        H335   1.081       .  S
C324        H336   1.082       .  S
C325        C326   1.370       .  A
C325        H337   1.081       .  S
C326        H338   1.080       .  S
C327        C328   1.372       .  A
C327        H339   1.082       .  S
C328        H340   1.081       .  S
C329        C531   1.490       .  S
C330        C819   1.487       .  S
C331        C659   1.485       .  S
C332        C387   1.498       .  S
N343        C348   1.357       .  A
N343        C347   1.359       .  A
N343        H375   1.037       .  S
N344        C351   1.353       .  A
N344        C352   1.352       .  A
N345        C350   1.357       .  A
N345        C349   1.356       .  A
N345        H376   1.038       .  S
N346        C353   1.354       .  A
N346        C354   1.356       .  A
C347        C355   1.386       .  A
C347        C363   1.421       .  A
C348        C364   1.423       .  A
C348        C356   1.389       .  A
C349        C357   1.387       .  A
C349        C366   1.417       .  A
C350        C365   1.419       .  A
C350        C358   1.387       .  A
C351        C363   1.417       .  A
C351        C359   1.387       .  A
C352        C366   1.415       .  A
C352        C360   1.386       .  A
C353        C361   1.388       .  A
C353        C364   1.423       .  A
C354        C362   1.385       .  A
C354        C365   1.419       .  A
C355        C356   1.372       .  A
C355        H367   1.082       .  S
C356        H368   1.082       .  S
C357        C358   1.369       .  A
C357        H369   1.082       .  S
C358        H370   1.082       .  S
C359        C360   1.368       .  A
C359        H371   1.080       .  S
C360        H372   1.082       .  S
C361        C362   1.370       .  A
C361        H373   1.081       .  S
C362        H374   1.080       .  S
C363        C784   1.492       .  S
C364        C496   1.492       .  S
C365        C435   1.495       .  S
C366        C720   1.483       .  S
C377        C382   1.387       .  A
C377        C378   1.402       .  A
C377        S383   1.707       .  A
C378        C379   1.402       .  A
C378        H389   1.083       .  S
C379        C388   1.373       .  A
C379        C380   1.386       .  A
C380        C381   1.408       .  A
C380        S386   1.714       .  A
C381        C382   1.408       .  A
C381        H390   1.083       .  S
C382        C385   1.379       .  A
S383        C384   1.722       .  A
C384        C385   1.390       .  A
C385        H391   1.083       .  S
S386        C387   1.730       .  A
C387        C388   1.388       .  A
C388        H392   1.083       .  S
C393        C398   1.387       .  A
C393        C394   1.403       .  A
C393        S399   1.709       .  A
C394        C395   1.404       .  A
C394        H405   1.083       .  S
C395        C404   1.372       .  A
C395        C396   1.387       .  A
C396        C397   1.404       .  A
C396        S402   1.711       .  A
C397        C398   1.404       .  A
C397        H406   1.083       .  S
C398        C401   1.374       .  A
S399        C400   1.724       .  A
C400        C401   1.386       .  A
C401        H407   1.083       .  S
S402        C403   1.723       .  A
C403        C404   1.388       .  A
C404        H408   1.083       .  S
C409        C414   1.386       .  A
C409        C410   1.404       .  A
C409        S415   1.713       .  A
C410        C411   1.405       .  A
C410        H421   1.083       .  S
C411        C420   1.373       .  A
C411        C412   1.387       .  A
C412        C413   1.401       .  A
C412        S418   1.709       .  A
C413        C414   1.403       .  A
C413        H422   1.083       .  S
C414        C417   1.369       .  A
S415        C416   1.724       .  A
C416        C417   1.386       .  A
C417        H423   1.083       .  S
S418        C419   1.724       .  A
C419        C420   1.388       .  A
C420        H424   1.083       .  S
C425        C430   1.387       .  A
C425        C426   1.402       .  A
C425        S431   1.710       .  A
C426        C427   1.404       .  A
C426        H437   1.083       .  S
C427        C436   1.371       .  A
C427        C428   1.386       .  A
C428        C429   1.404       .  A
C428        S434   1.712       .  A
C429        C430   1.406       .  A
C429        H438   1.083       .  S
C430        C433   1.373       .  A
S431        C432   1.722       .  A
C432        C433   1.389       .  A
C433        H439   1.083       .  S
S434        C435   1.727       .  A
C435        C436   1.390       .  A
C436        H440   1.083       .  S
C441        C446   1.386       .  A
C441        C442   1.401       .  A
C441        S447   1.704       .  A
C442        C443   1.402       .  A
C442        H453   1.083       .  S
C443        C452   1.370       .  A
C443        C444   1.387       .  A
C444        C445   1.400       .  A
C444        S450   1.706       .  A
C445        C446   1.401       .  A
C445        H454   1.083       .  S
C446        C449   1.369       .  A
S447        C448   1.727       .  A
C448        C449   1.387       .  A
C449        H455   1.083       .  S
S450        C451   1.721       .  A
C451        C452   1.386       .  A
C452        H456   1.083       .  S
C457        C462   1.387       .  A
C457        C458   1.405       .  A
C457        S463   1.712       .  A
C458        C459   1.405       .  A
C458        H469   1.083       .  S
C459        C468   1.374       .  A
C459        C460   1.387       .  A
C460        C461   1.402       .  A
C460        S466   1.709       .  A
C461        C462   1.403       .  A
C461        H470   1.083       .  S
C462        C465   1.372       .  A
S463        C464   1.724       .  A
C464        C465   1.387       .  A
C465        H471   1.083       .  S
S466        C467   1.721       .  A
C467        C468   1.387       .  A
C468        H472   1.083       .  S
C473        C478   1.387       .  A
C473        C474   1.396       .  A
C473        S479   1.701       .  A
C474        C475   1.397       .  A
C474        H485   1.083       .  S
C475        C484   1.363       .  A
C475        C476   1.387       .  A
C476        C477   1.403       .  A
C476        S482   1.711       .  A
C477        C478   1.405       .  A
C477        H486   1.083       .  S
C478        C481   1.371       .  A
S479        C480   1.722       .  A
C480        C481   1.389       .  A
C481        H487   1.083       .  S
S482        C483   1.723       .  A
C483        C484   1.382       .  A
C484        H488   1.083       .  S
C489        C494   1.387       .  A
C489        C490   1.404       .  A
C489        S495   1.709       .  A
C490        C491   1.404       .  A
C490        H501   1.083       .  S
C491        C500   1.375       .  A
C491        C492   1.387       .  A
C492        C493   1.401       .  A
C492        S498   1.703       .  A
C493        C494   1.401       .  A
C493        H502   1.083       .  S
C494        C497   1.371       .  A
S495        C496   1.726       .  A
C496        C497   1.388       .  A
C497        H503   1.083       .  S
S498        C499   1.722       .  A
C499        C500   1.387       .  A
C500        H504   1.083       .  S
C505        C510   1.387       .  A
C505        C506   1.404       .  A
C505        S511   1.710       .  A
C506        C507   1.404       .  A
C506        H517   1.083       .  S
C507        C516   1.374       .  A
C507        C508   1.387       .  A
C508        C509   1.401       .  A
C508        S514   1.705       .  A
C509        C510   1.402       .  A
C509        H518   1.083       .  S
C510        C513   1.372       .  A
S511        C512   1.724       .  A
C512        C513   1.386       .  A
C513        H519   1.083       .  S
S514        C515   1.724       .  A
C515        C516   1.388       .  A
C516        H520   1.083       .  S
C521        C526   1.387       .  A
C521        C522   1.400       .  A
C521        S527   1.705       .  A
C522        C523   1.401       .  A
C522        H533   1.083       .  S
C523        C532   1.370       .  A
C523        C524   1.387       .  A
C524        C525   1.404       .  A
C524        S530   1.709       .  A
C525        C526   1.405       .  A
C525        H534   1.083       .  S
C526        C529   1.374       .  A
S527        C528   1.721       .  A
C528        C529   1.388       .  A
C529        H535   1.083       .  S
S530        C531   1.727       .  A
C531        C532   1.386       .  A
C532        H536   1.083       .  S
C537        C542   1.387       .  A
C537        C538   1.403       .  A
C537        S543   1.711       .  A
C538        C539   1.404       .  A
C538        H549   1.083       .  S
C539        C548   1.371       .  A
C539        C540   1.387       .  A
C540        C541   1.402       .  A
C540        S546   1.710       .  A
C541        C542   1.403       .  A
C541        H550   1.083       .  S
C542        C545   1.370       .  A
S543        C544   1.723       .  A
C544        C545   1.384       .  A
C545        H551   1.083       .  S
S546        C547   1.722       .  A
C547        C548   1.387       .  A
C548        H552   1.083       .  S
C553        C558   1.387       .  A
C553        C554   1.403       .  A
C553        S559   1.709       .  A
C554        C555   1.404       .  A
C554        H565   1.083       .  S
C555        C564   1.372       .  A
C555        C556   1.388       .  A
C556        C557   1.401       .  A
C556        S562   1.707       .  A
C557        C558   1.402       .  A
C557        H566   1.083       .  S
C558        C561   1.370       .  A
S559        C560   1.723       .  A
C560        C561   1.386       .  A
C561        H567   1.083       .  S
S562        C563   1.721       .  A
C563        C564   1.386       .  A
C564        H568   1.083       .  S
C569        C574   1.388       .  A
C569        C570   1.401       .  A
C569        S575   1.707       .  A
C570        C571   1.403       .  A
C570        H581   1.083       .  S
C571        C580   1.371       .  A
C571        C572   1.387       .  A
C572        C573   1.402       .  A
C572        S578   1.708       .  A
C573        C574   1.402       .  A
C573        H582   1.083       .  S
C574        C577   1.371       .  A
S575        C576   1.720       .  A
C576        C577   1.384       .  A
C577        H583   1.083       .  S
S578        C579   1.722       .  A
C579        C580   1.386       .  A
C580        H584   1.083       .  S
C585        C590   1.388       .  A
C585        C586   1.403       .  A
C585        S591   1.709       .  A
C586        C587   1.403       .  A
C586        H597   1.083       .  S
C587        C596   1.372       .  A
C587        C588   1.387       .  A
C588        C589   1.400       .  A
C588        S594   1.705       .  A
C589        C590   1.401       .  A
C589        H598   1.083       .  S
C590        C593   1.370       .  A
S591        C592   1.723       .  A
C592        C593   1.384       .  A
C593        H599   1.083       .  S
S594        C595   1.722       .  A
C595        C596   1.386       .  A
C596        H600   1.083       .  S
C601        C606   1.387       .  A
C601        C602   1.404       .  A
C601        S607   1.710       .  A
C602        C603   1.404       .  A
C602        H613   1.083       .  S
C603        C612   1.372       .  A
C603        C604   1.386       .  A
C604        C605   1.402       .  A
C604        S610   1.707       .  A
C605        C606   1.402       .  A
C605        H614   1.083       .  S
C606        C609   1.372       .  A
S607        C608   1.724       .  A
C608        C609   1.386       .  A
C609        H615   1.083       .  S
S610        C611   1.724       .  A
C611        C612   1.390       .  A
C612        H616   1.083       .  S
C617        C622   1.386       .  A
C617        C618   1.402       .  A
C617        S623   1.707       .  A
C618        C619   1.403       .  A
C618        H629   1.083       .  S
C619        C628   1.371       .  A
C619        C620   1.387       .  A
C620        C621   1.401       .  A
C620        S626   1.707       .  A
C621        C622   1.402       .  A
C621        H630   1.083       .  S
C622        C625   1.369       .  A
S623        C624   1.726       .  A
C624        C625   1.387       .  A
C625        H631   1.083       .  S
S626        C627   1.722       .  A
C627        C628   1.386       .  A
C628        H632   1.083       .  S
C633        C638   1.387       .  A
C633        C634   1.402       .  A
C633        S639   1.709       .  A
C634        C635   1.403       .  A
C634        H645   1.083       .  S
C635        C644   1.371       .  A
C635        C636   1.387       .  A
C636        C637   1.402       .  A
C636        S642   1.708       .  A
C637        C638   1.403       .  A
C637        H646   1.083       .  S
C638        C641   1.370       .  A
S639        C640   1.722       .  A
C640        C641   1.386       .  A
C641        H647   1.083       .  S
S642        C643   1.724       .  A
C643        C644   1.388       .  A
C644        H648   1.083       .  S
C649        C654   1.387       .  A
C649        C650   1.403       .  A
C649        S655   1.711       .  A
C650        C651   1.404       .  A
C650        H661   1.083       .  S
C651        C660   1.371       .  A
C651        C652   1.387       .  A
C652        C653   1.402       .  A
C652        S658   1.709       .  A
C653        C654   1.403       .  A
C653        H662   1.083       .  S
C654        C657   1.371       .  A
S655        C656   1.722       .  A
C656        C657   1.386       .  A
C657        H663   1.083       .  S
S658        C659   1.723       .  A
C659        C660   1.386       .  A
C660        H664   1.083       .  S
C665        C670   1.388       .  A
C665        C666   1.399       .  A
C665        S671   1.707       .  A
C666        C667   1.401       .  A
C666        H677   1.083       .  S
C667        C676   1.367       .  A
C667        C668   1.387       .  A
C668        C669   1.403       .  A
C668        S674   1.712       .  A
C669        C670   1.405       .  A
C669        H678   1.083       .  S
C670        C673   1.371       .  A
S671        C672   1.719       .  A
C672        C673   1.385       .  A
C673        H679   1.083       .  S
S674        C675   1.723       .  A
C675        C676   1.384       .  A
C676        H680   1.083       .  S
C681        C686   1.387       .  A
C681        C682   1.404       .  A
C681        S687   1.712       .  A
C682        C683   1.406       .  A
C682        H693   1.083       .  S
C683        C692   1.374       .  A
C683        C684   1.387       .  A
C684        C685   1.403       .  A
C684        S690   1.711       .  A
C685        C686   1.404       .  A
C685        H694   1.083       .  S
C686        C689   1.372       .  A
S687        C688   1.725       .  A
C688        C689   1.386       .  A
C689        H695   1.083       .  S
S690        C691   1.723       .  A
C691        C692   1.389       .  A
C692        H696   1.083       .  S
C697        C702   1.387       .  A
C697        C698   1.401       .  A
C697        S703   1.706       .  A
C698        C699   1.402       .  A
C698        H709   1.083       .  S
C699        C708   1.371       .  A
C699        C700   1.387       .  A
C700        C701   1.402       .  A
C700        S706   1.705       .  A
C701        C702   1.402       .  A
C701        H710   1.083       .  S
C702        C705   1.372       .  A
S703        C704   1.721       .  A
C704        C705   1.386       .  A
C705        H711   1.083       .  S
S706        C707   1.727       .  A
C707        C708   1.387       .  A
C708        H712   1.083       .  S
C713        C718   1.387       .  A
C713        C714   1.402       .  A
C713        S719   1.707       .  A
C714        C715   1.402       .  A
C714        H725   1.083       .  S
C715        C724   1.371       .  A
C715        C716   1.388       .  A
C716        C717   1.400       .  A
C716        S722   1.703       .  A
C717        C718   1.400       .  A
C717        H726   1.083       .  S
C718        C721   1.368       .  A
S719        C720   1.723       .  A
C720        C721   1.385       .  A
C721        H727   1.083       .  S
S722        C723   1.722       .  A
C723        C724   1.385       .  A
C724       H1616   1.083       .  S
H728       C1612   1.083   1_545  S
C729        C734   1.387       .  A
C729        C730   1.399       .  A
C729        S735   1.700       .  A
C730        C731   1.398       .  A
C730        H741   1.083       .  S
C731        C740   1.370       .  A
C731        C732   1.387       .  A
C732        C733   1.409       .  A
C732        S738   1.713       .  A
C733        C734   1.408       .  A
C733        H742   1.083       .  S
C734        C737   1.380       .  A
S735        C736   1.721       .  A
C736        C737   1.391       .  A
C737        H743   1.083       .  S
S738        C739   1.724       .  A
C739        C740   1.383       .  A
C740        H744   1.083       .  S
C745        C750   1.387       .  A
C745        C746   1.402       .  A
C745        S751   1.709       .  A
C746        C747   1.403       .  A
C746        H757   1.083       .  S
C747        C756   1.371       .  A
C747        C748   1.387       .  A
C748        C749   1.401       .  A
C748        S754   1.707       .  A
C749        C750   1.402       .  A
C749        H758   1.083       .  S
C750        C753   1.369       .  A
S751        C752   1.722       .  A
C752        C753   1.385       .  A
C753        H759   1.083       .  S
S754        C755   1.723       .  A
C755        C756   1.386       .  A
C756        H760   1.083       .  S
C761        C766   1.387       .  A
C761        C762   1.398       .  A
C761        S767   1.704       .  A
C762        C763   1.400       .  A
C762        H773   1.083       .  S
C763        C772   1.366       .  A
C763        C764   1.387       .  A
C764        C765   1.403       .  A
C764        S770   1.712       .  A
C765        C766   1.404       .  A
C765        H774   1.083       .  S
C766        C769   1.370       .  A
S767        C768   1.723       .  A
C768        C769   1.389       .  A
C769        H775   1.083       .  S
S770        C771   1.723       .  A
C771        C772   1.384       .  A
C772        H776   1.083       .  S
C777        C782   1.387       .  A
C777        C778   1.403       .  A
C777        S783   1.711       .  A
C778        C779   1.404       .  A
C778        H789   1.083       .  S
C779        C788   1.371       .  A
C779        C780   1.387       .  A
C780        C781   1.404       .  A
C780        S786   1.713       .  A
C781        C782   1.405       .  A
C781        H790   1.083       .  S
C782        C785   1.372       .  A
S783        C784   1.726       .  A
C784        C785   1.388       .  A
C785        H791   1.083       .  S
S786        C787   1.724       .  A
C787        C788   1.387       .  A
C788        H792   1.083       .  S
C793        C798   1.387       .  A
C793        C794   1.399       .  A
C793        S799   1.704       .  A
C794        C795   1.400       .  A
C794        H805   1.083       .  S
C795        C804   1.368       .  A
C795        C796   1.387       .  A
C796        C797   1.402       .  A
C796        S802   1.706       .  A
C797        C798   1.403       .  A
C797        H806   1.083       .  S
C798        C801   1.372       .  A
S799        C800   1.721       .  A
C800        C801   1.386       .  A
C801        H807   1.083       .  S
S802        C803   1.727       .  A
C803        C804   1.385       .  A
C804        H808   1.083       .  S
C809        C814   1.387       .  A
C809        C810   1.402       .  A
C809        S815   1.707       .  A
C810        C811   1.402       .  A
C810        H821   1.083       .  S
C811        C820   1.371       .  A
C811        C812   1.387       .  A
C812        C813   1.403       .  A
C812        S818   1.709       .  A
C813        C814   1.404       .  A
C813        H822   1.083       .  S
C814        C817   1.372       .  A
S815        C816   1.722       .  A
C816        C817   1.386       .  A
C817        H823   1.083       .  S
S818        C819   1.724       .  A
C819        C820   1.386       .  A
C820        H824   1.083       .  S
C825        C830   1.388       .  A
C825        C826   1.407       .  A
C825        S831   1.712       .  A
C826        C827   1.407       .  A
C826        H837   1.083       .  S
C827        C836   1.377       .  A
C827        C828   1.388       .  A
C828        C829   1.396       .  A
C828        S834   1.698       .  A
C829        C830   1.396       .  A
C829        H838   1.083       .  S
C830        C833   1.366       .  A
S831        C832   1.724       .  A
C832        C833   1.380       .  A
C833        H839   1.083       .  S
S834        C835   1.718       .  A
C835        C836   1.390       .  A
C836        H840   1.083       .  S
C841        C846   1.387       .  A
C841        C842   1.398       .  A
C841        S847   1.704       .  A
C842        C843   1.399       .  A
C842        H853   1.083       .  S
C843        C852   1.366       .  A
C843        C844   1.387       .  A
C844        C845   1.405       .  A
C844        S850   1.713       .  A
C845        C846   1.407       .  A
C845        H854   1.083       .  S
C846        C849   1.374       .  A
S847        C848   1.721       .  A
C848        C849   1.389       .  A
C849        H855   1.083       .  S
S850        C851   1.725       .  A
C851        C852   1.383       .  A
C852        H856   1.083       .  S
C857        C862   1.387       .  A
C857        C858   1.406       .  A
C857        S863   1.711       .  A
C858        C859   1.406       .  A
C858        H869   1.083       .  S
C859        C868   1.375       .  A
C859        C860   1.387       .  A
C860        C861   1.399       .  A
C860        S866   1.704       .  A
C861        C862   1.399       .  A
C861        H870   1.083       .  S
C862        C865   1.369       .  A
S863        C864   1.724       .  A
C864        C865   1.382       .  A
C865        H871   1.083       .  S
S866        C867   1.720       .  A
C867        C868   1.390       .  A
C868        H872   1.083       .  S
C873        C878   1.387       .  A
C873        C874   1.402       .  A
C873        S879   1.709       .  A
C874        C875   1.403       .  A
C874        H885   1.083       .  S
C875        C884   1.372       .  A
C875        C876   1.387       .  A
C876        C877   1.401       .  A
C876        S882   1.706       .  A
C877        C878   1.402       .  A
C877        H886   1.083       .  S
C878        C881   1.370       .  A
S879        C880   1.723       .  A
C880        C881   1.385       .  A
C881        H887   1.083       .  S
S882        C883   1.722       .  A
C883        C884   1.386       .  A
C884        H888   1.083       .  S
N889        C894   1.354   1_455  A
N889        C893   1.354       .  A
N889        H921   1.033       .  S
N890        C898   1.353       .  A
N891        C896   1.355   1_455  A
N891        C895   1.354       .  A
N891        H922   1.036       .  S
N892        C900   1.352       .  A
C893        C901   1.388       .  A
C893        C909   1.419       .  A
C894        C910   1.416       .  A
C894        C902   1.387       .  A
C895        C903   1.388       .  A
C895        C912   1.419       .  A
C896        C911   1.419       .  A
C896        C904   1.387       .  A
C897        C909   1.417       .  A
C897        C905   1.386       .  A
C898        C912   1.416       .  A
C898        C906   1.387       .  A
C899        C907   1.387       .  A
C899        C910   1.414       .  A
C900        C908   1.387       .  A
C900        C911   1.416       .  A
C901        C902   1.374   1_455  A
C901        H913   1.082       .  S
C902        H914   1.082       .  S
C903        C904   1.375   1_455  A
C903        H915   1.082       .  S
C904        H916   1.082       .  S
C905        H917   1.082       .  S
C906        H918   1.082       .  S
C907        H919   1.082       .  S
C908        H920   1.082       .  S
C909       C1736   1.484       .  S
C910       C1752   1.478       .  S
C911       C1768   1.485       .  S
C912       C1720   1.481       .  S
In923       O925   2.227       .  S
In923       O926   2.255       .  S
In923       O934   2.241       .  S
In923       O928   2.253       .  S
In923       O930   2.258       .  S
In923       O931   2.264       .  S
In923       O932   2.225       .  S
In923       O935   2.240       .  S
C924       C1739   1.471       .  S
C924        O930   1.265       .  A
C924        O932   1.262       .  A
O925        C933   1.260       .  A
O926        C933   1.265       .  A
C927       C1688   1.471       .  S
C927        O934   1.259       .  A
C927        O928   1.263       .  A
C929       C1704   1.470       .  S
C929        O931   1.262       .  A
C929        O935   1.258       .  A
C933       C1723   1.469       .  S
In936       O938   2.244       .  S
In936       O939   2.245       .  S
In936       O947   2.244       .  S
In936       O941   2.263       .  S
In936       O943   2.264       .  S
In936       O944   2.256       .  S
In936       O945   2.238       .  S
In936       O948   2.248       .  S
C937       C1771   1.473       .  S
C937        O943   1.264       .  A
C937        O945   1.260       .  A
O938        C946   1.261       .  A
O939        C946   1.260       .  A
C940       C1659   1.474       .  S
C940        O947   1.259       .  A
C940        O941   1.262       .  A
C942       C1675   1.471       .  S
C942        O944   1.259       .  A
C942        O948   1.259       .  A
C946       C1755   1.468       .  S
In949       O951   2.233       .  S
In949       O952   2.270       .  S
In949       O960   2.243       .  S
In949       O954   2.244       .  S
In949       O957   2.255       .  S
C950       C1640   1.468       .  S
C950        O956   1.262       .  A
C950        O958   1.261       .  A
O951        C959   1.258       .  A
O952        C959   1.264       .  A
C953       C1592   1.465       .  S
C953        O960   1.259       .  A
C953        O954   1.263       .  A
C955       C1611   1.474       .  S
C955        O961   1.260       .  A
C959       C1624   1.473       .  S
N962        C967   1.355       .  A
N962        C966   1.351       .  A
N962        H994   1.036       .  S
N963        C970   1.354       .  A
N963        C971   1.355       .  A
N964        C969   1.355       .  A
N964        C968   1.356       .  A
N964        H995   1.037       .  S
N965        C972   1.353       .  A
N965        C973   1.351       .  A
C966        C974   1.388       .  A
C966        C982   1.416       .  A
C967        C983   1.416       .  A
C967        C975   1.387       .  A
C968        C976   1.386       .  A
C968        C985   1.417       .  A
C969        C984   1.420       .  A
C969        C977   1.388       .  A
C970        C982   1.417       .  A
C970        C978   1.387       .  A
C971        C985   1.416       .  A
C971        C979   1.385       .  A
C972        C980   1.386       .  A
C972        C983   1.413       .  A
C973        C981   1.387       .  A
C973        C984   1.414       .  A
C974        C975   1.373       .  A
C974        H986   1.082       .  S
C975        H987   1.082       .  S
C976        C977   1.374       .  A
C976        H988   1.082       .  S
C977        H989   1.082       .  S
C978        C979   1.373       .  A
C978        H990   1.082       .  S
C979        H991   1.082       .  S
C980        C981   1.373       .  A
C980        H992   1.082       .  S
C981        H993   1.082       .  S
C982       C1643   1.480       .  S
C983       C1560   1.483       .  S
C984       C1576   1.484       .  S
C985       C1627   1.489       .  S
In996      O1001   2.256       .  S
In996      O1003   2.264       .  S
In996      O1004   2.257       .  S
In996      O1005   2.236       .  S
In996      O1008   2.238       .  S
C997       C1579   1.471       .  S
C997       O1003   1.262       .  A
C997       O1005   1.259       .  A
O998       C1006   1.258       .  A
O999       C1006   1.261       .  A
C1000      C1528   1.474       .  S
C1000      O1007   1.260       .  A
C1002      C1544   1.472       .  S
C1002      O1004   1.263       .  A
C1002      O1008   1.262       .  A
C1006      C1563   1.470       .  S
N1009      C1014   1.352       .  A
N1009      C1013   1.353       .  A
N1009      H1041   1.041       .  S
N1010      C1017   1.352       .  A
N1010      C1018   1.351   1_554  A
N1011      C1016   1.354       .  A
N1011      C1015   1.353       .  A
N1011      H1042   1.042       .  S
N1012      C1019   1.352       .  A
N1012      C1020   1.353   1_554  A
C1013      C1021   1.387       .  A
C1013      C1029   1.414       .  A
C1014      C1030   1.413       .  A
C1014      C1022   1.386       .  A
C1015      C1023   1.387       .  A
C1015      C1032   1.415       .  A
C1016      C1031   1.416       .  A
C1016      C1024   1.387       .  A
C1017      C1029   1.414       .  A
C1017      C1025   1.386       .  A
C1018      C1032   1.413       .  A
C1018      C1026   1.386       .  A
C1019      C1027   1.386       .  A
C1019      C1030   1.413       .  A
C1020      C1028   1.386       .  A
C1020      C1031   1.413       .  A
C1021      C1022   1.376       .  A
C1021      H1033   1.082       .  S
C1022      H1034   1.082       .  S
C1023      C1024   1.378       .  A
C1023      H1035   1.082       .  S
C1024      H1036   1.082       .  S
C1025      C1026   1.375   1_554  A
C1025      H1037   1.082       .  S
C1026      H1038   1.082       .  S
C1027      C1028   1.372   1_554  A
C1027      H1039   1.082       .  S
C1028      H1040   1.082       .  S
C1029      C1499   1.490       .  S
C1030      C1512   1.487       .  S
C1031      C1531   1.493       .  S
C1032      C1691   1.487       .  S
N1043      C1048   1.354       .  A
N1043      C1047   1.353   1_655  A
N1043      H1075   1.037       .  S
N1044      C1052   1.352       .  A
N1045      C1050   1.355       .  A
N1045      C1049   1.354   1_655  A
N1045      H1076   1.036       .  S
N1046      C1054   1.352       .  A
C1047      C1055   1.387       .  A
C1047      C1063   1.416       .  A
C1048      C1064   1.417       .  A
C1048      C1056   1.388       .  A
C1049      C1057   1.387       .  A
C1049      C1066   1.416       .  A
C1050      C1065   1.416       .  A
C1050      C1058   1.387       .  A
C1051      C1063   1.415       .  A
C1051      C1059   1.386       .  A
C1052      C1066   1.413       .  A
C1052      C1060   1.386       .  A
C1053      C1061   1.386       .  A
C1053      C1064   1.414       .  A
C1054      C1062   1.386       .  A
C1054      C1065   1.413       .  A
C1055      C1056   1.375   1_455  A
C1055      H1067   1.082       .  S
C1056      H1068   1.082       .  S
C1057      C1058   1.374   1_455  A
C1057      H1069   1.082       .  S
C1058      H1070   1.082       .  S
C1059      H1071   1.082       .  S
C1060      H1072   1.082       .  S
C1061      H1073   1.082       .  S
C1062      H1074   1.082       .  S
C1063      C1432   1.481       .  S
C1064      C1480   1.483       .  S
C1065      C1464   1.480       .  S
C1066      C1451   1.480       .  S
In1077     O1079   2.234       .  S
In1077     O1080   2.257       .  S
In1077     O1088   2.248       .  S
In1077     O1082   2.262       .  S
In1077     O1084   2.252       .  S
In1077     O1085   2.258       .  S
In1077     O1086   2.243       .  S
In1077     O1089   2.243       .  S
C1078      C1448   1.472       .  S
C1078      O1084   1.264       .  A
C1078      O1086   1.262       .  A
O1079      C1087   1.258       .  A
O1080      C1087   1.262       .  A
C1081      C1496   1.473       .  S
C1081      O1088   1.259       .  A
C1081      O1082   1.261       .  A
C1083      C1435   1.473       .  S
C1083      O1085   1.262       .  A
C1083      O1089   1.261       .  A
C1087      C1416   1.467       .  S
In1090     O1092   2.251       .  S
In1090     O1093   2.238       .  S
In1090     O1101   2.226       .  S
In1090     O1095   2.255       .  S
In1090     O1097   2.254       .  S
In1090     O1098   2.265       .  S
In1090     O1099   2.236       .  S
In1090     O1102   2.224       .  S
C1091      C1467   1.469       .  S
C1091      O1097   1.261       .  A
C1091      O1099   1.261       .  A
O1092      C1100   1.260       .  A
O1093      C1100   1.259       .  A
C1094      C1387   1.463       .  S
C1094      O1101   1.257       .  A
C1094      O1095   1.262       .  A
C1096      C1483   1.470       .  S
C1096      O1098   1.263       .  A
C1096      O1102   1.260       .  A
C1100      C1400   1.467       .  S
In1103     O1105   2.252       .  S
In1103     O1106   2.244       .  S
In1103     O1108   2.261       .  S
In1103     O1110   2.272       .  S
In1103     O1112   2.247       .  S
C1104      C1352   1.475       .  S
C1104      O1110   1.261       .  A
C1104      O1112   1.258       .  A
O1105      C1113   1.262       .  A
O1106      C1113   1.261       .  A
C1107      C1320   1.476       .  S
C1107      O1114   1.259       .  A
C1109      C1371   1.463       .  S
C1109      O1111   1.260       .  A
C1109      O1115   1.259       .  A
C1113      C1339   1.470       .  S
In1116     O1118   2.250       .  S
In1116     O1119   2.248       .  S
In1116     O1121   2.254       .  S
In1116     O1123   2.256       .  S
In1116     O1125   2.232       .  S
C1117      C1304   1.468       .  S
C1117      O1123   1.263       .  A
C1117      O1125   1.259       .  A
O1118      C1126   1.264       .  A
O1119      C1126   1.261       .  A
C1120      C1515   1.468       .  S
C1120      O1127   1.261       .  A
C1122      C1291   1.473       .  S
C1122      O1124   1.262       .  A
C1122      O1128   1.258       .  A
C1126      C1272   1.472       .  S
N1129      C1134   1.354       .  A
N1129      C1133   1.351       .  A
N1129      H1161   1.039       .  S
N1130      C1137   1.350       .  A
N1130      C1138   1.351       .  A
N1131      C1136   1.353       .  A
N1131      C1135   1.355       .  A
N1131      H1162   1.039       .  S
N1132      C1139   1.352       .  A
N1132      C1140   1.350       .  A
C1133      C1141   1.388       .  A
C1133      C1149   1.412       .  A
C1134      C1150   1.411       .  A
C1134      C1142   1.386       .  A
C1135      C1143   1.386       .  A
C1135      C1152   1.414       .  A
C1136      C1151   1.415       .  A
C1136      C1144   1.388       .  A
C1137      C1149   1.412       .  A
C1137      C1145   1.387       .  A
C1138      C1152   1.409       .  A
C1138      C1146   1.385       .  A
C1139      C1147   1.385       .  A
C1139      C1150   1.411       .  A
C1140      C1148   1.387       .  A
C1140      C1151   1.413       .  A
C1141      C1142   1.374       .  A
C1141      H1153   1.082       .  S
C1142      H1154   1.082       .  S
C1143      C1144   1.375       .  A
C1143      H1155   1.082       .  S
C1144      H1156   1.082       .  S
C1145      C1146   1.373       .  A
C1145      H1157   1.082       .  S
C1146      H1158   1.082       .  S
C1147      C1148   1.374       .  A
C1147      H1159   1.082       .  S
C1148      H1160   1.082       .  S
C1149      C1368   1.475       .  S
C1150      C1288   1.482       .  S
C1151      C1307   1.478       .  S
C1152      C1355   1.481       .  S
N1163      C1168   1.352       .  A
N1163      C1167   1.352       .  A
N1163      H1195   1.042       .  S
N1164      C1171   1.349   1_554  A
N1164      C1172   1.351       .  A
N1165      C1170   1.350       .  A
N1165      C1169   1.354       .  A
N1165      H1196   1.041       .  S
N1166      C1173   1.353   1_554  A
N1166      C1174   1.351       .  A
C1167      C1175   1.387       .  A
C1167      C1183   1.413       .  A
C1168      C1184   1.411       .  A
C1168      C1176   1.386       .  A
C1169      C1177   1.387       .  A
C1169      C1186   1.415       .  A
C1170      C1185   1.411       .  A
C1170      C1178   1.386       .  A
C1171      C1183   1.411       .  A
C1171      C1179   1.387       .  A
C1172      C1186   1.411       .  A
C1172      C1180   1.385       .  A
C1173      C1181   1.386       .  A
C1173      C1184   1.414       .  A
C1174      C1182   1.386       .  A
C1174      C1185   1.413       .  A
C1175      C1176   1.377       .  A
C1175      H1187   1.082       .  S
C1176      H1188   1.082       .  S
C1177      C1178   1.377       .  A
C1177      H1189   1.082       .  S
C1178      H1190   1.082       .  S
C1179      C1180   1.374   1_556  A
C1179      H1191   1.082       .  S
C1180      H1192   1.082       .  S
C1181      C1182   1.374   1_556  A
C1181      H1193   1.082       .  S
C1182      H1194   1.082       .  S
C1183      C1595   1.484       .  S
C1184      C1656   1.490       .  S
C1185      C1403   1.481       .  S
C1186      C1336   1.489       .  S
N1197      C1202   1.354       .  A
N1197      C1201   1.355       .  A
N1197      H1229   1.039       .  S
N1198      C1205   1.352       .  A
N1198      C1206   1.351       .  A
N1199      C1204   1.356       .  A
N1199      C1203   1.355       .  A
N1199      H1230   1.033       .  S
N1200      C1207   1.352       .  A
N1200      C1208   1.353       .  A
C1201      C1209   1.387       .  A
C1201      C1217   1.415       .  A
C1202      C1218   1.414       .  A
C1202      C1210   1.387       .  A
C1203      C1211   1.388       .  A
C1203      C1220   1.422       .  A
C1204      C1219   1.422       .  A
C1204      C1212   1.388       .  A
C1205      C1217   1.414       .  A
C1205      C1213   1.386       .  A
C1206      C1220   1.417       .  A
C1206      C1214   1.388       .  A
C1207      C1215   1.386       .  A
C1207      C1218   1.416       .  A
C1208      C1216   1.387       .  A
C1208      C1219   1.419       .  A
C1209      C1210   1.370       .  A
C1209      H1221   1.082       .  S
C1210      H1222   1.082       .  S
C1211      C1212   1.373       .  A
C1211      H1223   1.082       .  S
C1212      H1224   1.082       .  S
C1213      C1214   1.370       .  A
C1213      H1225   1.081       .  S
C1214      H1226   1.082       .  S
C1215      C1216   1.370       .  A
C1215      H1227   1.082       .  S
C1216      H1228   1.081       .  S
C1217      C1419   1.484       .  S
C1218      C1707   1.482       .  S
C1219      C1547   1.488       .  S
C1220      C1275   1.482       .  S
N1231      C1236   1.355       .  A
N1231      C1235   1.357       .  A
N1231      H1263   1.036       .  S
N1232      C1239   1.353       .  A
N1232      C1240   1.352       .  A
N1233      C1238   1.359       .  A
N1233      C1237   1.356       .  A
N1233      H1264   1.037       .  S
N1234      C1241   1.352       .  A
N1234      C1242   1.354       .  A
C1235      C1243   1.387       .  A
C1235      C1251   1.419       .  A
C1236      C1252   1.419       .  A
C1236      C1244   1.388       .  A
C1237      C1245   1.387       .  A
C1237      C1254   1.419       .  A
C1238      C1253   1.421       .  A
C1238      C1246   1.387       .  A
C1239      C1251   1.417       .  A
C1239      C1247   1.387       .  A
C1240      C1254   1.416       .  A
C1240      C1248   1.386       .  A
C1241      C1249   1.388       .  A
C1241      C1252   1.418       .  A
C1242      C1250   1.385       .  A
C1242      C1253   1.417       .  A
C1243      C1244   1.371       .  A
C1243      H1255   1.082       .  S
C1244      H1256   1.082       .  S
C1245      C1246   1.371       .  A
C1245      H1257   1.082       .  S
C1246      H1258   1.082       .  S
C1247      C1248   1.371       .  A
C1247      H1259   1.082       .  S
C1248      H1260   1.082       .  S
C1249      C1250   1.367       .  A
C1249      H1261   1.081       .  S
C1250      H1262   1.081       .  S
C1251      C1672   1.488       .  S
C1252      C1384   1.481       .  S
C1253      C1323   1.495       .  S
C1254      C1608   1.485       .  S
C1265      C1270   1.387       .  A
C1265      C1266   1.403       .  A
C1265      S1271   1.709       .  A
C1266      C1267   1.404       .  A
C1266      H1277   1.083       .  S
C1267      C1276   1.371       .  A
C1267      C1268   1.388       .  A
C1268      C1269   1.400       .  A
C1268      S1274   1.707       .  A
C1269      C1270   1.401       .  A
C1269      H1278   1.083       .  S
C1270      C1273   1.371       .  A
S1271      C1272   1.724       .  A
C1272      C1273   1.385       .  A
C1273      H1279   1.083       .  S
S1274      C1275   1.719       .  A
C1275      C1276   1.387       .  A
C1276      H1280   1.083       .  S
C1281      C1286   1.387       .  A
C1281      C1282   1.404       .  A
C1281      S1287   1.712       .  A
C1282      C1283   1.405       .  A
C1282      H1293   1.083       .  S
C1283      C1292   1.373       .  A
C1283      C1284   1.387       .  A
C1284      C1285   1.402       .  A
C1284      S1290   1.709       .  A
C1285      C1286   1.403       .  A
C1285      H1294   1.083       .  S
C1286      C1289   1.371       .  A
S1287      C1288   1.722       .  A
C1288      C1289   1.384       .  A
C1289      H1295   1.083       .  S
S1290      C1291   1.721       .  A
C1291      C1292   1.388       .  A
C1292      H1296   1.083       .  S
C1297      C1302   1.387       .  A
C1297      C1298   1.401       .  A
C1297      S1303   1.709       .  A
C1298      C1299   1.402       .  A
C1298      H1309   1.083       .  S
C1299      C1308   1.368       .  A
C1299      C1300   1.388       .  A
C1300      C1301   1.400       .  A
C1300      S1306   1.707       .  A
C1301      C1302   1.402       .  A
C1301      H1310   1.083       .  S
C1302      C1305   1.367       .  A
S1303      C1304   1.721       .  A
C1304      C1305   1.385       .  A
C1305      H1311   1.083       .  S
S1306      C1307   1.721       .  A
C1307      C1308   1.384       .  A
C1308      H1312   1.083       .  S
C1313      C1318   1.387       .  A
C1313      C1314   1.402       .  A
C1313      S1319   1.710       .  A
C1314      C1315   1.403       .  A
C1314      H1325   1.083       .  S
C1315      C1324   1.371       .  A
C1315      C1316   1.386       .  A
C1316      C1317   1.405       .  A
C1316      S1322   1.711       .  A
C1317      C1318   1.406       .  A
C1317      H1326   1.083       .  S
C1318      C1321   1.374       .  A
S1319      C1320   1.722       .  A
C1320      C1321   1.390       .  A
C1321      H1327   1.083       .  S
S1322      C1323   1.729       .  A
C1323      C1324   1.387       .  A
C1324      H1328   1.083       .  S
C1329      C1334   1.386       .  A
C1329      C1330   1.401       .  A
C1329      S1335   1.707       .  A
C1330      C1331   1.402       .  A
C1330      H1341   1.083       .  S
C1331      C1340   1.370       .  A
C1331      C1332   1.387       .  A
C1332      C1333   1.403       .  A
C1332      S1338   1.710       .  A
C1333      C1334   1.404       .  A
C1333      H1342   1.083       .  S
C1334      C1337   1.371       .  A
S1335      C1336   1.726       .  A
C1336      C1337   1.389       .  A
C1337      H1343   1.083       .  S
S1338      C1339   1.723       .  A
C1339      C1340   1.385       .  A
C1340      H1344   1.083       .  S
C1345      C1350   1.387       .  A
C1345      C1346   1.405       .  A
C1345      S1351   1.713       .  A
C1346      C1347   1.406       .  A
C1346      H1357   1.083       .  S
C1347      C1356   1.373       .  A
C1347      C1348   1.388       .  A
C1348      C1349   1.400       .  A
C1348      S1354   1.707       .  A
C1349      C1350   1.402       .  A
C1349      H1358   1.083       .  S
C1350      C1353   1.369       .  A
S1351      C1352   1.725       .  A
C1352      C1353   1.386       .  A
C1353      H1359   1.083       .  S
S1354      C1355   1.720       .  A
C1355      C1356   1.387       .  A
C1356      H1360   1.083       .  S
C1361      C1366   1.388       .  A
C1361      C1362   1.397       .  A
C1361      S1367   1.701       .  A
C1362      C1363   1.398       .  A
C1362      H1373   1.083       .  S
C1363      C1372   1.364       .  A
C1363      C1364   1.387       .  A
C1364      C1365   1.401       .  A
C1364      S1370   1.707       .  A
C1365      C1366   1.402       .  A
C1365      H1374   1.083       .  S
C1366      C1369   1.368       .  A
S1367      C1368   1.719       .  A
C1368      C1369   1.384       .  A
C1369      H1375   1.083       .  S
S1370      C1371   1.721       .  A
C1371      C1372   1.383       .  A
C1372      H1376   1.083       .  S
C1377      C1382   1.388       .  A
C1377      C1378   1.401       .  A
C1377      S1383   1.706       .  A
C1378      C1379   1.402       .  A
C1378      H1389   1.083       .  S
C1379      C1388   1.370       .  A
C1379      C1380   1.388       .  A
C1380      C1381   1.398       .  A
C1380      S1386   1.702       .  A
C1381      C1382   1.399       .  A
C1381      H1390   1.083       .  S
C1382      C1385   1.366       .  A
S1383      C1384   1.722       .  A
C1384      C1385   1.384       .  A
C1385      H1391   1.083       .  S
S1386      C1387   1.720       .  A
C1387      C1388   1.384       .  A
C1388      H1392   1.083       .  S
C1393      C1398   1.387       .  A
C1393      C1394   1.403       .  A
C1393      S1399   1.709       .  A
C1394      C1395   1.403       .  A
C1394      H1405   1.083       .  S
C1395      C1404   1.371       .  A
C1395      C1396   1.387       .  A
C1396      C1397   1.399       .  A
C1396      S1402   1.703       .  A
C1397      C1398   1.400       .  A
C1397      H1406   1.083       .  S
C1398      C1401   1.367       .  A
S1399      C1400   1.722       .  A
C1400      C1401   1.384       .  A
C1401      H1407   1.083       .  S
S1402      C1403   1.722       .  A
C1403      C1404   1.387       .  A
C1404      H1408   1.083       .  S
C1409      C1414   1.388       .  A
C1409      C1410   1.401       .  A
C1409      S1415   1.704       .  A
C1410      C1411   1.401       .  A
C1410      H1421   1.083       .  S
C1411      C1420   1.371       .  A
C1411      C1412   1.387       .  A
C1412      C1413   1.401       .  A
C1412      S1418   1.704       .  A
C1413      C1414   1.401       .  A
C1413      H1422   1.083       .  S
C1414      C1417   1.371       .  A
S1415      C1416   1.722       .  A
C1416      C1417   1.385       .  A
C1417      H1423   1.083       .  S
S1418      C1419   1.723       .  A
C1419      C1420   1.386       .  A
C1420      H1424   1.083       .  S
C1425      C1430   1.388       .  A
C1425      C1426   1.399       .  A
C1425      S1431   1.704       .  A
C1426      C1427   1.400       .  A
C1426      H1437   1.083       .  S
C1427      C1436   1.369       .  A
C1427      C1428   1.387       .  A
C1428      C1429   1.406       .  A
C1428      S1434   1.713       .  A
C1429      C1430   1.407       .  A
C1429      H1438   1.083       .  S
C1430      C1433   1.375       .  A
S1431      C1432   1.719       .  A
C1432      C1433   1.388       .  A
C1433      H1439   1.083       .  S
S1434      C1435   1.725       .  A
C1435      C1436   1.385       .  A
C1436      H1440   1.083       .  S
C1441      C1446   1.387       .  A
C1441      C1442   1.401       .  A
C1441      S1447   1.709       .  A
C1442      C1443   1.402       .  A
C1442      H1453   1.083       .  S
C1443      C1452   1.369       .  A
C1443      C1444   1.387       .  A
C1444      C1445   1.404       .  A
C1444      S1450   1.711       .  A
C1445      C1446   1.405       .  A
C1445      H1454   1.083       .  S
C1446      C1449   1.372       .  A
S1447      C1448   1.721       .  A
C1448      C1449   1.388       .  A
C1449      H1455   1.083       .  S
S1450      C1451   1.722       .  A
C1451      C1452   1.383       .  A
C1452      H1456   1.083       .  S
C1457      C1462   1.388       .  A
C1457      C1458   1.399       .  A
C1457      S1463   1.705       .  A
C1458      C1459   1.400       .  A
C1458      H1469   1.083       .  S
C1459      C1468   1.368       .  A
C1459      C1460   1.387       .  A
C1460      C1461   1.404       .  A
C1460      S1466   1.711       .  A
C1461      C1462   1.405       .  A
C1461      H1470   1.083       .  S
C1462      C1465   1.373       .  A
S1463      C1464   1.718       .  A
C1464      C1465   1.386       .  A
C1465      H1471   1.083       .  S
S1466      C1467   1.724       .  A
C1467      C1468   1.384       .  A
C1468      H1472   1.083       .  S
C1473      C1478   1.387       .  A
C1473      C1474   1.408       .  A
C1473      S1479   1.713       .  A
C1474      C1475   1.408       .  A
C1474      H1485   1.083       .  S
C1475      C1484   1.377       .  A
C1475      C1476   1.387       .  A
C1476      C1477   1.397       .  A
C1476      S1482   1.701       .  A
C1477      C1478   1.398       .  A
C1477      H1486   1.083       .  S
C1478      C1481   1.368       .  A
S1479      C1480   1.725       .  A
C1480      C1481   1.381       .  A
C1481      H1487   1.083       .  S
S1482      C1483   1.719       .  A
C1483      C1484   1.390       .  A
C1484      H1488   1.083       .  S
C1489      C1494   1.387       .  A
C1489      C1490   1.403       .  A
C1489      S1495   1.710       .  A
C1490      C1491   1.404       .  A
C1490      H1501   1.083       .  S
C1491      C1500   1.372       .  A
C1491      C1492   1.387       .  A
C1492      C1493   1.402       .  A
C1492      S1498   1.706       .  A
C1493      C1494   1.403       .  A
C1493      H1502   1.083       .  S
C1494      C1497   1.371       .  A
S1495      C1496   1.723       .  A
C1496      C1497   1.387       .  A
C1497      H1503   1.083       .  S
S1498      C1499   1.726       .  A
C1499      C1500   1.388       .  A
C1500      H1504   1.083       .  S
C1505      C1510   1.386       .  A
C1505      C1506   1.401       .  A
C1505      S1511   1.707       .  A
C1506      C1507   1.402       .  A
C1506      H1517   1.083       .  S
C1507      C1516   1.370       .  A
C1507      C1508   1.387       .  A
C1508      C1509   1.402       .  A
C1508      S1514   1.709       .  A
C1509      C1510   1.403       .  A
C1509      H1518   1.083       .  S
C1510      C1513   1.369       .  A
S1511      C1512   1.725       .  A
C1512      C1513   1.388       .  A
C1513      H1519   1.083       .  S
S1514      C1515   1.722       .  A
C1515      C1516   1.385       .  A
C1516      H1520   1.083       .  S
C1521      C1526   1.387       .  A
C1521      C1522   1.406       .  A
C1521      S1527   1.712       .  A
C1522      C1523   1.406       .  A
C1522      H1533   1.083       .  S
C1523      C1532   1.375       .  A
C1523      C1524   1.386       .  A
C1524      C1525   1.401       .  A
C1524      S1530   1.705       .  A
C1525      C1526   1.402       .  A
C1525      H1534   1.083       .  S
C1526      C1529   1.372       .  A
S1527      C1528   1.725       .  A
C1528      C1529   1.385       .  A
C1529      H1535   1.083       .  S
S1530      C1531   1.725       .  A
C1531      C1532   1.392       .  A
C1532      H1536   1.083       .  S
C1537      C1542   1.387       .  A
C1537      C1538   1.405       .  A
C1537      S1543   1.713       .  A
C1538      C1539   1.406       .  A
C1538      H1549   1.083       .  S
C1539      C1548   1.374       .  A
C1539      C1540   1.387       .  A
C1540      C1541   1.400       .  A
C1540      S1546   1.706       .  A
C1541      C1542   1.401       .  A
C1541      H1550   1.083       .  S
C1542      C1545   1.369       .  A
S1543      C1544   1.725       .  A
C1544      C1545   1.385       .  A
C1545      H1551   1.083       .  S
S1546      C1547   1.722       .  A
C1547      C1548   1.389       .  A
C1548      H1552   1.083       .  S
C1553      C1558   1.388       .  A
C1553      C1554   1.401       .  A
C1553      S1559   1.708       .  A
C1554      C1555   1.402       .  A
C1554      H1565   1.083       .  S
C1555      C1564   1.369       .  A
C1555      C1556   1.387       .  A
C1556      C1557   1.403       .  A
C1556      S1562   1.711       .  A
C1557      C1558   1.404       .  A
C1557      H1566   1.083       .  S
C1558      C1561   1.372       .  A
S1559      C1560   1.722       .  A
C1560      C1561   1.386       .  A
C1561      H1567   1.083       .  S
S1562      C1563   1.722       .  A
C1563      C1564   1.386       .  A
C1564      H1568   1.083       .  S
C1569      C1574   1.387       .  A
C1569      C1570   1.399       .  A
C1569      S1575   1.707       .  A
C1570      C1571   1.401       .  A
C1570      H1581   1.083       .  S
C1571      C1580   1.367       .  A
C1571      C1572   1.387       .  A
C1572      C1573   1.404       .  A
C1572      S1578   1.712       .  A
C1573      C1574   1.405       .  A
C1573      H1582   1.083       .  S
C1574      C1577   1.371       .  A
S1575      C1576   1.721       .  A
C1576      C1577   1.388       .  A
C1577      H1583   1.083       .  S
S1578      C1579   1.723       .  A
C1579      C1580   1.385       .  A
C1580      H1584   1.083       .  S
C1585      C1590   1.387       .  A
C1585      C1586   1.404       .  A
C1585      S1591   1.710       .  A
C1586      C1587   1.405       .  A
C1586      H1597   1.083       .  S
C1587      C1596   1.372       .  A
C1587      C1588   1.387       .  A
C1588      C1589   1.396       .  A
C1588      S1594   1.700       .  A
C1589      C1590   1.397       .  A
C1589      H1598   1.083       .  S
C1590      C1593   1.366       .  A
S1591      C1592   1.724       .  A
C1592      C1593   1.381       .  A
C1593      H1599   1.083       .  S
S1594      C1595   1.722       .  A
C1595      C1596   1.390       .  A
C1596      H1600   1.083       .  S
C1601      C1606   1.387       .  A
C1601      C1602   1.403       .  A
C1601      S1607   1.707       .  A
C1602      C1603   1.403       .  A
C1602      H1613   1.083       .  S
C1603      C1612   1.374       .  A
C1603      C1604   1.387       .  A
C1604      C1605   1.403       .  A
C1604      S1610   1.707       .  A
C1605      C1606   1.403       .  A
C1605      H1614   1.083       .  S
C1606      C1609   1.372       .  A
S1607      C1608   1.722       .  A
C1608      C1609   1.386       .  A
C1609      H1615   1.083       .  S
S1610      C1611   1.724       .  A
C1611      C1612   1.387       .  A
C1617      C1622   1.387       .  A
C1617      C1618   1.403       .  A
C1617      S1623   1.706       .  A
C1618      C1619   1.403       .  A
C1618      H1629   1.083       .  S
C1619      C1628   1.374       .  A
C1619      C1620   1.387       .  A
C1620      C1621   1.406       .  A
C1620      S1626   1.711       .  A
C1621      C1622   1.405       .  A
C1621      H1630   1.083       .  S
C1622      C1625   1.377       .  A
S1623      C1624   1.723       .  A
C1624      C1625   1.388       .  A
C1625      H1631   1.083       .  S
S1626      C1627   1.724       .  A
C1627      C1628   1.387       .  A
C1628      H1632   1.083       .  S
C1633      C1638   1.387       .  A
C1633      C1634   1.404       .  A
C1633      S1639   1.712       .  A
C1634      C1635   1.405       .  A
C1634      H1645   1.083       .  S
C1635      C1644   1.372       .  A
C1635      C1636   1.388       .  A
C1636      C1637   1.397       .  A
C1636      S1642   1.702       .  A
C1637      C1638   1.398       .  A
C1637      H1646   1.083       .  S
C1638      C1641   1.365       .  A
S1639      C1640   1.724       .  A
C1640      C1641   1.383       .  A
C1641      H1647   1.083       .  S
S1642      C1643   1.719       .  A
C1643      C1644   1.387       .  A
C1644      H1648   1.083       .  S
C1649      C1654   1.387       .  A
C1649      C1650   1.401       .  A
C1649      S1655   1.705       .  A
C1650      C1651   1.402       .  A
C1650      H1661   1.083       .  S
C1651      C1660   1.370       .  A
C1651      C1652   1.387       .  A
C1652      C1653   1.404       .  A
C1652      S1658   1.711       .  A
C1653      C1654   1.405       .  A
C1653      H1662   1.083       .  S
C1654      C1657   1.374       .  A
S1655      C1656   1.725       .  A
C1656      C1657   1.389       .  A
C1657      H1663   1.083       .  S
S1658      C1659   1.724       .  A
C1659      C1660   1.386       .  A
C1660      H1664   1.083       .  S
C1665      C1670   1.387       .  A
C1665      C1666   1.401       .  A
C1665      S1671   1.708       .  A
C1666      C1667   1.402       .  A
C1666      H1677   1.083       .  S
C1667      C1676   1.370       .  A
C1667      C1668   1.387       .  A
C1668      C1669   1.404       .  A
C1668      S1674   1.710       .  A
C1669      C1670   1.405       .  A
C1669      H1678   1.083       .  S
C1670      C1673   1.372       .  A
S1671      C1672   1.723       .  A
C1672      C1673   1.387       .  A
C1673      H1679   1.083       .  S
S1674      C1675   1.723       .  A
C1675      C1676   1.385       .  A
C1676      H1680   1.083       .  S
C1681      C1686   1.387       .  A
C1681      C1682   1.405       .  A
C1681      S1687   1.709       .  A
C1682      C1683   1.405       .  A
C1682      H1693   1.083       .  S
C1683      C1692   1.374       .  A
C1683      C1684   1.387       .  A
C1684      C1685   1.400       .  A
C1684      S1690   1.704       .  A
C1685      C1686   1.400       .  A
C1685      H1694   1.083       .  S
C1686      C1689   1.370       .  A
S1687      C1688   1.725       .  A
C1688      C1689   1.384       .  A
C1689      H1695   1.083       .  S
S1690      C1691   1.723       .  A
C1691      C1692   1.389       .  A
C1692      H1696   1.083       .  S
C1697      C1702   1.387       .  A
C1697      C1698   1.398       .  A
C1697      S1703   1.704       .  A
C1698      C1699   1.399       .  A
C1698      H1709   1.083       .  S
C1699      C1708   1.366       .  A
C1699      C1700   1.387       .  A
C1700      C1701   1.404       .  A
C1700      S1706   1.710       .  A
C1701      C1702   1.405       .  A
C1701      H1710   1.083       .  S
C1702      C1705   1.374       .  A
S1703      C1704   1.721       .  A
C1704      C1705   1.387       .  A
C1705      H1711   1.083       .  S
S1706      C1707   1.724       .  A
C1707      C1708   1.382       .  A
C1708      H1712   1.083       .  S
C1713      C1718   1.388       .  A
C1713      C1714   1.403       .  A
C1713      S1719   1.708       .  A
C1714      C1715   1.403       .  A
C1714      H1725   1.083       .  S
C1715      C1724   1.373       .  A
C1715      C1716   1.387       .  A
C1716      C1717   1.401       .  A
C1716      S1722   1.704       .  A
C1717      C1718   1.401       .  A
C1717      H1726   1.083       .  S
C1718      C1721   1.370       .  A
S1719      C1720   1.721       .  A
C1720      C1721   1.385       .  A
C1721      H1727   1.083       .  S
S1722      C1723   1.722       .  A
C1723      C1724   1.386       .  A
C1724      H1728   1.083       .  S
C1729      C1734   1.388       .  A
C1729      C1730   1.398       .  A
C1729      S1735   1.704       .  A
C1730      C1731   1.399       .  A
C1730      H1741   1.083       .  S
C1731      C1740   1.367       .  A
C1731      C1732   1.387       .  A
C1732      C1733   1.405       .  A
C1732      S1738   1.713       .  A
C1733      C1734   1.406       .  A
C1733      H1742   1.083       .  S
C1734      C1737   1.374       .  A
S1735      C1736   1.721       .  A
C1736      C1737   1.388       .  A
C1737      H1743   1.083       .  S
S1738      C1739   1.724       .  A
C1739      C1740   1.384       .  A
C1740      H1744   1.083       .  S
C1745      C1750   1.388       .  A
C1745      C1746   1.401       .  A
C1745      S1751   1.709       .  A
C1746      C1747   1.403       .  A
C1746      H1757   1.083       .  S
C1747      C1756   1.369       .  A
C1747      C1748   1.387       .  A
C1748      C1749   1.400       .  A
C1748      S1754   1.707       .  A
C1749      C1750   1.401       .  A
C1749      H1758   1.083       .  S
C1750      C1753   1.368       .  A
S1751      C1752   1.721       .  A
C1752      C1753   1.383       .  A
C1753      H1759   1.083       .  S
S1754      C1755   1.721       .  A
C1755      C1756   1.385       .  A
C1756      H1760   1.083       .  S
C1761      C1766   1.387       .  A
C1761      C1762   1.403       .  A
C1761      S1767   1.707       .  A
C1762      C1763   1.403       .  A
C1762      H1773   1.083       .  S
C1763      C1772   1.374       .  A
C1763      C1764   1.387       .  A
C1764      C1765   1.403       .  A
C1764      S1770   1.707       .  A
C1765      C1766   1.403       .  A
C1765      H1774   1.083       .  S
C1766      C1769   1.373       .  A
S1767      C1768   1.722       .  A
C1768      C1769   1.387       .  A
C1769      H1775   1.083       .  S
S1770      C1771   1.723       .  A
C1771      C1772   1.387       .  A
C1772      H1776   1.083       .  S
