geometry optimzed in LAMMPS
_audit_creation_date              2020-11-30 
_audit_creation_method            'lammps2cif' 
_symmetry_space_group_name_H-M    'P1' 
_symmetry_Int_Tables_number       1 
_symmetry_cell_setting            triclinic 
loop_ 
_symmetry_equiv_pos_as_xyz 
  x,y,z 
_cell_length_a                    33.81028687 
_cell_length_b                    30.397711705700043 
_cell_length_c                    33.69542959491989 
_cell_angle_alpha                 98.05742061063486 
_cell_angle_beta                  70.51999495197047 
_cell_angle_gamma                 98.14361373297105 
loop_ 
_atom_site_label 
_atom_site_type_symbol 
_atom_site_fract_x 
_atom_site_fract_y 
_atom_site_fract_z 
_atom_site_charge 
O1          O  0.97048327  0.03333082  0.10914679    -0.80700
O2          O  0.98796175  0.01349337  0.91652040    -0.65400
O3          O  0.96719528  0.98949271  0.03014322    -1.12000
C4          C  0.11523941  0.98431349  0.98543137     1.06200
O5          O  0.03154451  0.96108700  0.88865886    -0.78600
O6          O  0.04470470  0.91158914  0.94252049    -0.66200
Ni7        Ni  0.93238016  0.02574030  0.07632964     1.34900
C8          C  0.02920040  0.90010958  0.97981402     0.84900
O9          O  0.91779999  0.99962422  0.98054506    -0.79100
O10         O  0.88932097  0.02082885  0.04976738    -0.89400
C11         C  0.00793971  0.98836211  0.88515414     0.84500
O12         O  0.95568300  0.08232069  0.05592322    -0.67600
O13         O  0.11189809  0.97175870  0.94886461    -0.86900
C14         C  0.97209318  0.09397140  0.01873299     0.85300
C15         C  0.88660020  0.00940440  0.01283263     1.06900
H16         H  0.04773011  0.03470154  0.96542512     0.38700
O17         O  0.03473800  0.00435930  0.96812548    -1.09500
O18         O  0.02257240  0.92776754  0.01274272    -0.66200
Ni19       Ni  0.02555746  0.99174303  0.02470494     1.26300
O20         O  0.97979184  0.06636052  0.98574910    -0.66400
O21         O  0.08437296  0.99500359  0.01776133    -0.78700
C22         C  0.99377603  0.00602605  0.11314822     0.84700
O23         O  0.01391696  0.98072264  0.08199170    -0.65900
Ni24       Ni  0.06916872  0.96776034  0.92199812     1.27400
Ni25       Ni  0.97643511  0.00236603  0.97366567     1.26100
H26         H  0.95436010  0.95907981  0.03265880     0.39300
O27         O  0.96769799  0.04211356  0.61178450    -0.80700
O28         O  0.98201258  0.01823663  0.41960367    -0.65400
O29         O  0.96286720  0.99658744  0.53373212    -1.12000
C30         C  0.11114070  0.99309557  0.48794311     1.06200
O31         O  0.02633614  0.96645551  0.39241134    -0.78600
O32         O  0.04193915  0.91866476  0.44588702    -0.66200
Ni33       Ni  0.92875513  0.03355355  0.57977150     1.34900
C34         C  0.02584042  0.90707908  0.48311731     0.84900
O35         O  0.91222555  0.00432688  0.48496278    -0.79100
O36         O  0.88501373  0.02756191  0.55399107    -0.89400
C37         C  0.00276774  0.99341090  0.38836046     0.84500
O38         O  0.95184986  0.08953769  0.55808299    -0.67600
O39         O  0.10812713  0.98103287  0.45119978    -0.86900
C40         C  0.96730328  0.10051282  0.52060782     0.85300
C41         C  0.88141255  0.01445584  0.51759666     1.06900
H42         H  0.04236719  0.04170553  0.46822022     0.38700
O43         O  0.02980774  0.01121634  0.47104402    -1.09500
O44         O  0.01829818  0.93482186  0.51607124    -0.66200
Ni45       Ni  0.02127634  0.99907164  0.52762756     1.26300
O46         O  0.97407429  0.07237996  0.48801639    -0.66400
O47         O  0.08002233  0.00266834  0.52036159    -0.78700
C48         C  0.99051486  0.01438108  0.61594425     0.84700
O49         O  0.01024763  0.98874037  0.58488142    -0.65900
Ni50       Ni  0.06473703  0.97505546  0.42494774     1.27400
Ni51       Ni  0.97123614  0.00825425  0.47708382     1.26100
H52         H  0.95004694  0.96625201  0.53692590     0.39300
O53         O  0.96735458  0.53278971  0.10940381    -0.80700
O54         O  0.98440928  0.51333795  0.91668604    -0.65400
O55         O  0.96462813  0.48948199  0.03008544    -1.12000
C56         C  0.11343775  0.48738577  0.98391626     1.06200
O57         O  0.02791323  0.46091455  0.88902347    -0.78600
O58         O  0.04439025  0.41260448  0.94181752    -0.66200
Ni59       Ni  0.92942407  0.52526505  0.07643980     1.34900
C60         C  0.02831587  0.40093946  0.97903354     0.84900
O61         O  0.91453083  0.49809598  0.98085548    -0.79100
O62         O  0.88634962  0.52042991  0.04984532    -0.89400
C63         C  0.00482722  0.48856920  0.88524745     0.84500
O64         O  0.95264711  0.58190029  0.05635017    -0.67600
O65         O  0.11028312  0.47545961  0.94718412    -0.86900
C66         C  0.96825643  0.59364041  0.01916251     0.85300
C67         C  0.88342789  0.50823361  0.01308145     1.06900
H68         H  0.04418320  0.53574212  0.96514165     0.38700
O69         O  0.03173372  0.50521031  0.96774641    -1.09500
O70         O  0.02063237  0.42857289  0.01200711    -0.66200
Ni71       Ni  0.02324154  0.49257643  0.02406985     1.26300
O72         O  0.97545428  0.56612600  0.98608729    -0.66400
O73         O  0.08225515  0.49647295  0.01654823    -0.78700
C74         C  0.99172269  0.50625658  0.11265602     0.84700
O75         O  0.01238665  0.48171434  0.08115345    -0.65900
Ni76       Ni  0.06663938  0.46935150  0.92124302     1.27400
Ni77       Ni  0.97326584  0.50214787  0.97370966     1.26100
H78         H  0.95216702  0.45894286  0.03264213     0.39300
O79         O  0.97020281  0.53853968  0.60949154    -0.80700
O80         O  0.98650952  0.51773124  0.41649521    -0.65400
O81         O  0.96713424  0.49462442  0.53015179    -1.12000
C82         C  0.11534727  0.49199320  0.48547097     1.06200
O83         O  0.03228920  0.46734454  0.38820054    -0.78600
O84         O  0.04571915  0.41818911  0.44205872    -0.66200
Ni85       Ni  0.93194178  0.53015935  0.57664525     1.34900
C86         C  0.03031362  0.40663140  0.47932708     0.84900
O87         O  0.91657060  0.50241979  0.48105564    -0.79100
O88         O  0.88864333  0.52403845  0.55030479    -0.89400
C89         C  0.00758231  0.49348562  0.38494855     0.84500
O90         O  0.95421050  0.58692390  0.55614513    -0.67600
O91         O  0.11235961  0.47915441  0.44883182    -0.86900
C92         C  0.96970935  0.59878966  0.51895287     0.85300
C93         C  0.88542907  0.51171778  0.51365726     1.06900
H94         H  0.04652236  0.54131346  0.46521687     0.38700
O95         O  0.03423579  0.51073706  0.46788506    -1.09500
O96         O  0.02360593  0.43428267  0.51226232    -0.66200
Ni97       Ni  0.02557998  0.49822300  0.52436774     1.26300
O98         O  0.97736678  0.57123729  0.48585540    -0.66400
O99         O  0.08429756  0.50275955  0.51746334    -0.78700
C100        C  0.99419255  0.51160173  0.61285242     0.84700
O101        O  0.01459791  0.48701654  0.58131046    -0.65900
Ni102      Ni  0.06961383  0.47464849  0.42182360     1.27400
Ni103      Ni  0.97559905  0.50709814  0.47372466     1.26100
H104        H  0.95486927  0.46402232  0.53274330     0.39300
O105        O  0.47066717  0.03687243  0.11052591    -0.80700
O106        O  0.48704618  0.01738091  0.91754896    -0.65400
O107        O  0.46743033  0.99420090  0.03107367    -1.12000
C108        C  0.61587599  0.99046539  0.98504930     1.06200
O109        O  0.53099638  0.96533985  0.88951824    -0.78600
O110        O  0.54714013  0.91677784  0.94234938    -0.66200
Ni111      Ni  0.43312912  0.03092799  0.07720159     1.34900
C112        C  0.53079179  0.90506833  0.97952283     0.84900
O113        O  0.41724769  0.00293909  0.98195826    -0.79100
O114        O  0.39025552  0.02741125  0.05055717    -0.89400
C115        C  0.50673878  0.99201343  0.88624740     0.84500
O116        O  0.45808568  0.08702245  0.05653642    -0.67600
O117        O  0.61300842  0.97922301  0.94813985    -0.86900
C118        C  0.47306943  0.09850427  0.01919287     0.85300
C119        C  0.38659267  0.01415785  0.01423101     1.06900
H120        H  0.54720324  0.03986395  0.96615530     0.38700
O121        O  0.53460773  0.00937254  0.96863277    -1.09500
O122        O  0.52285887  0.93259031  0.01256036    -0.66200
Ni123      Ni  0.52589861  0.99647413  0.02500357     1.26300
O124        O  0.47898976  0.07076197  0.98632986    -0.66400
O125        O  0.58466742  0.99955244  0.01759902    -0.78700
C126        C  0.49400344  0.00918931  0.11382340     0.84700
O127        O  0.51477544  0.98500976  0.08206123    -0.65900
Ni128      Ni  0.56952526  0.97356887  0.92201690     1.27400
Ni129      Ni  0.47611839  0.00666407  0.97461200     1.26100
H130        H  0.45453657  0.96383228  0.03392759     0.39300
O131        O  0.46528023  0.03298636  0.61146085    -0.80700
O132        O  0.48292159  0.01221240  0.41827451    -0.65400
O133        O  0.46287933  0.98912081  0.53199424    -1.12000
C134        C  0.61135582  0.98701196  0.48664127     1.06200
O135        O  0.52699436  0.96023849  0.39078768    -0.78600
O136        O  0.54212838  0.91205170  0.44437315    -0.66200
Ni137      Ni  0.42760059  0.02500154  0.57817979     1.34900
C138        C  0.52634145  0.90082137  0.48173985     0.84900
O139        O  0.41298052  0.99748659  0.48236835    -0.79100
O140        O  0.38474405  0.01965494  0.55138192    -0.89400
C141        C  0.50340849  0.98730874  0.38698992     0.84500
O142        O  0.45102462  0.08144753  0.55772614    -0.67600
O143        O  0.60819798  0.97431088  0.45004815    -0.86900
C144        C  0.46716128  0.09304342  0.52051385     0.85300
C145        C  0.38184291  0.00742536  0.51463637     1.06900
H146        H  0.54260135  0.03516822  0.46692255     0.38700
O147        O  0.53010681  0.00471101  0.46972818    -1.09500
O148        O  0.51913559  0.92871667  0.51450186    -0.66200
Ni149      Ni  0.52137003  0.99259469  0.52627917     1.26300
O150        O  0.47418989  0.06547229  0.48748692    -0.66400
O151        O  0.58028627  0.99691794  0.51906982    -0.78700
C152        C  0.48940086  0.00632886  0.61493684     0.84700
O153        O  0.51020997  0.98186150  0.58346863    -0.65900
Ni154      Ni  0.56508485  0.96852540  0.42359545     1.27400
Ni155      Ni  0.47168980  0.00148128  0.47544495     1.26100
H156        H  0.45048388  0.95852516  0.53464749     0.39300
O157        O  0.46945130  0.53818377  0.11067533    -0.80700
O158        O  0.48375725  0.51845432  0.91827303    -0.65400
O159        O  0.46501523  0.49455547  0.03165784    -1.12000
C160        C  0.61339154  0.49156914  0.98430820     1.06200
O161        O  0.52659847  0.46536627  0.89088840    -0.78600
O162        O  0.54392497  0.41721041  0.94288411    -0.66200
Ni163      Ni  0.43060094  0.53049282  0.07847765     1.34900
C164        C  0.52839807  0.40558385  0.98010953     0.84900
O165        O  0.41411446  0.50410432  0.98340347    -0.79100
O166        O  0.38669606  0.52497000  0.05287793    -0.89400
C167        C  0.50347130  0.49292921  0.88704682     0.84500
O168        O  0.45333270  0.58717601  0.05781870    -0.67600
O169        O  0.61013651  0.47961623  0.94761758    -0.86900
C170        C  0.46923783  0.59881239  0.02055768     0.85300
C171        C  0.38318754  0.51321254  0.01625643     1.06900
H172        H  0.54436973  0.54030710  0.96604394     0.38700
O173        O  0.53166340  0.50987372  0.96880308    -1.09500
O174        O  0.52095097  0.43325980  0.01305896    -0.66200
Ni175      Ni  0.52362267  0.49731673  0.02501009     1.26300
O176        O  0.47626736  0.57125823  0.98756425    -0.66400
O177        O  0.58245188  0.50110407  0.01693869    -0.78700
C178        C  0.49333272  0.51089967  0.11367514     0.84700
O179        O  0.51341482  0.48631029  0.08191076    -0.65900
Ni180      Ni  0.56605575  0.47381365  0.92221191     1.27400
Ni181      Ni  0.47309744  0.50737615  0.97537392     1.26100
H182        H  0.45245955  0.46405474  0.03428721     0.39300
O183        O  0.47136697  0.53400003  0.60845189    -0.80700
O184        O  0.48572867  0.51056224  0.41648990    -0.65400
O185        O  0.46668673  0.48915545  0.53038284    -1.12000
C186        C  0.61493011  0.48471585  0.48361896     1.06200
O187        O  0.52938744  0.45831250  0.38869264    -0.78600
O188        O  0.54485101  0.41045401  0.44256376    -0.66200
Ni189      Ni  0.43296001  0.52691121  0.57602278     1.34900
C190        C  0.52912598  0.39932142  0.47999251     0.84900
O191        O  0.41636845  0.49705751  0.48146912    -0.79100
O192        O  0.38958580  0.52277581  0.54980534    -0.89400
C193        C  0.50595671  0.48567318  0.38507267     0.84500
O194        O  0.45779016  0.58250360  0.55435115    -0.67600
O195        O  0.61145614  0.47240094  0.44708401    -0.86900
C196        C  0.47243490  0.59312913  0.51675264     0.85300
C197        C  0.38591742  0.50914268  0.51352586     1.06900
H198        H  0.54633025  0.53367445  0.46436471     0.38700
O199        O  0.53359993  0.50326055  0.46739625    -1.09500
O200        O  0.52194378  0.42730273  0.51269641    -0.66200
Ni201      Ni  0.52520757  0.49135028  0.52401779     1.26300
O202        O  0.47813417  0.56472086  0.48439829    -0.66400
O203        O  0.58409621  0.49455498  0.51628412    -0.78700
C204        C  0.49419995  0.50622390  0.61246710     0.84700
O205        O  0.51427724  0.48091078  0.58129207    -0.65900
Ni206      Ni  0.56791788  0.46661250  0.42115553     1.27400
Ni207      Ni  0.47510917  0.50058753  0.47371399     1.26100
H208        H  0.45363051  0.45893163  0.53383386     0.39300
C209        C  0.48655048  0.51825117  0.72151192     0.20600
C210        C  0.47279455  0.53596933  0.76401772    -0.39300
C211        C  0.48512574  0.51517172  0.79195656     0.19500
C212        C  0.50928567  0.47946909  0.77846865     0.22200
C213        C  0.52299734  0.46171496  0.73597164    -0.39800
C214        C  0.51072701  0.48256318  0.70802414     0.21000
N215        N  0.47855550  0.53171860  0.68896679    -0.33100
C216        C  0.49769214  0.50442377  0.65449582    -0.10700
C217        C  0.51826155  0.47336882  0.66504626    -0.29500
N218        N  0.51780847  0.46643080  0.81089764    -0.46100
C219        C  0.49910120  0.49406904  0.84527826    -0.05300
C220        C  0.47816587  0.52482932  0.83481570    -0.22700
H221        H  0.45402620  0.56397827  0.77450410     0.19100
H222        H  0.54196179  0.43386338  0.72544572     0.17900
H223        H  0.53551539  0.44706283  0.64430312     0.14200
H224        H  0.46124546  0.55139681  0.85547475     0.14000
H225        H  0.46057490  0.55746442  0.69026414     0.32200
H226        H  0.53603796  0.44088772  0.80952987     0.35000
C227        C  0.51417350  0.47883683  0.27594673     0.20600
C228        C  0.52986113  0.46525283  0.23247263    -0.39300
C229        C  0.51483039  0.48592968  0.20637910     0.19500
C230        C  0.48642363  0.51769355  0.22242802     0.22200
C231        C  0.47080319  0.53127801  0.26583883    -0.39800
C232        C  0.48577947  0.51061461  0.29189279     0.21000
N233        N  0.52404616  0.46490307  0.30727142    -0.33100
C234        C  0.50191202  0.48815242  0.34334738    -0.10700
C235        C  0.47754828  0.51686182  0.33504086    -0.29500
N236        N  0.47620459  0.53152448  0.19130708    -0.46100
C237        C  0.49805212  0.50828033  0.15513441    -0.05300
C238        C  0.52270411  0.47963334  0.16320706    -0.22700
H239        H  0.55202577  0.44037856  0.21992240     0.19100
H240        H  0.44856748  0.55607663  0.27840961     0.17900
H241        H  0.45737089  0.53996981  0.35742625     0.14200
H242        H  0.54274753  0.45649695  0.14069892     0.14000
H243        H  0.54526007  0.44178871  0.30418283     0.32200
H244        H  0.45485116  0.55455822  0.19462741     0.35000
C245        C  0.51053483  0.78161372  0.47381249     0.20600
C246        C  0.51121618  0.73798430  0.45357907    -0.39300
C247        C  0.49944364  0.70371237  0.48039863     0.19500
C248        C  0.48781559  0.71228699  0.52399758     0.22200
C249        C  0.48702477  0.75588051  0.54422081    -0.39800
C250        C  0.49882630  0.79011499  0.51742088     0.21000
N251        N  0.52120198  0.81995496  0.45547224    -0.33100
C252        C  0.51631239  0.85305046  0.48767016    -0.10700
C253        C  0.50219838  0.83574149  0.52678164    -0.29500
N254        N  0.47753967  0.67403006  0.54240307    -0.46100
C255        C  0.48253708  0.64081065  0.51032666    -0.05300
C256        C  0.49631196  0.65800469  0.47114172    -0.22700
H257        H  0.52034286  0.73122918  0.41949913     0.19100
H258        H  0.47798965  0.76264174  0.57829793     0.17900
H259        H  0.49605109  0.85408186  0.55781455     0.14200
H260        H  0.50245186  0.63955669  0.44015961     0.14000
H261        H  0.53168815  0.82337044  0.42307243     0.32200
H262        H  0.46718342  0.67074796  0.57482524     0.35000
C263        C  0.49806155  0.20190709  0.48532281     0.20600
C264        C  0.51221482  0.23360321  0.45585002    -0.39300
C265        C  0.51287971  0.27833643  0.47295471     0.19500
C266        C  0.50049855  0.29060757  0.51612957     0.22200
C267        C  0.48636342  0.25887359  0.54566505    -0.39800
C268        C  0.48557331  0.21407036  0.52852468     0.21000
N269        N  0.49367701  0.15732476  0.47704115    -0.33100
C270        C  0.47804303  0.14090494  0.51522375    -0.10700
C271        C  0.47272248  0.17526976  0.54814123    -0.29500
N272        N  0.50424650  0.33528463  0.52420006    -0.46100
C273        C  0.51916879  0.35149752  0.48585964    -0.05300
C274        C  0.52488569  0.31697026  0.45315104    -0.22700
H275        H  0.52180422  0.22412558  0.42207877     0.19100
H276        H  0.47649567  0.26835812  0.57944074     0.17900
H277        H  0.46052672  0.17226758  0.58180918     0.14200
H278        H  0.53656347  0.31977173  0.41944444     0.14000
H279        H  0.50032199  0.13922377  0.44723549     0.32200
H280        H  0.49741059  0.35358420  0.55391831     0.35000
C281        C  0.50029176  0.70747466  0.98467603     0.20600
C282        C  0.51537963  0.73904503  0.95502443    -0.39300
C283        C  0.51528991  0.78389688  0.97195999     0.19500
C284        C  0.50126370  0.79625932  0.01510265     0.22200
C285        C  0.48625540  0.76470196  0.04473013    -0.39800
C286        C  0.48631425  0.71987777  0.02781026     0.21000
N287        N  0.49647755  0.66282341  0.97668978    -0.33100
C288        C  0.47983809  0.64667244  0.01500058    -0.10700
C289        C  0.47320011  0.68126358  0.04768215    -0.29500
N290        N  0.50455571  0.84089415  0.02316098    -0.46100
C291        C  0.52088606  0.85714282  0.98490581    -0.05300
C292        C  0.52795902  0.82259473  0.95215194    -0.22700
H293        H  0.52625588  0.72939706  0.92128946     0.19100
H294        H  0.47521905  0.77435102  0.07845768     0.17900
H295        H  0.46002151  0.67852920  0.08135487     0.14200
H296        H  0.54095456  0.82542337  0.91848328     0.14000
H297        H  0.50425533  0.64448770  0.94697871     0.32200
H298        H  0.49652760  0.85917148  0.05289641     0.35000
C299        C  0.50190988  0.20762439  0.98380163     0.20600
C300        C  0.51575558  0.23957133  0.95446833    -0.39300
C301        C  0.51474039  0.28430965  0.97181399     0.19500
C302        C  0.50092770  0.29627074  0.01503100     0.22200
C303        C  0.48709053  0.26434153  0.04432761    -0.39800
C304        C  0.48818885  0.21964426  0.02700670     0.21000
N305        N  0.49910581  0.16294909  0.97546574    -0.33100
C306        C  0.48338124  0.14643656  0.01366043    -0.10700
C307        C  0.47636259  0.18080970  0.04654808    -0.29500
N308        N  0.50344347  0.34090936  0.02348443    -0.46100
C309        C  0.51908546  0.35755191  0.98538041    -0.05300
C310        C  0.52643999  0.32325097  0.95238156    -0.22700
H311        H  0.52649657  0.23029071  0.92066846     0.19100
H312        H  0.47624160  0.27361748  0.07812306     0.17900
H313        H  0.46351728  0.17777296  0.08018628     0.14200
H314        H  0.53915388  0.32641201  0.91875779     0.14000
H315        H  0.50676511  0.14483698  0.94564589     0.32200
H316        H  0.49548345  0.35892741  0.05334626     0.35000
C317        C  0.50954522  0.97889481  0.77850134     0.20600
C318        C  0.52287225  0.96212221  0.73573500    -0.39300
C319        C  0.50889223  0.98275925  0.70890723     0.19500
C320        C  0.48344351  0.01734493  0.72359519     0.22200
C321        C  0.47002668  0.03408552  0.76641038    -0.39800
C322        C  0.48410364  0.01349239  0.79324250     0.21000
N323        N  0.51980220  0.96603939  0.81001022    -0.33100
C324        C  0.50094413  0.99276409  0.84504443    -0.10700
C325        C  0.47810726  0.02259839  0.83594676    -0.29500
N326        N  0.47405953  0.03080991  0.69180249    -0.46100
C327        C  0.49362885  0.00455063  0.65666813    -0.05300
C328        C  0.51581902  0.97428781  0.66603201    -0.22700
H329        H  0.54287641  0.93518373  0.72416477     0.19100
H330        H  0.45031777  0.06128177  0.77791883     0.17900
H331        H  0.46064065  0.04836143  0.85738487     0.14200
H332        H  0.53379293  0.94890484  0.64454511     0.14000
H333        H  0.53929715  0.94135383  0.80759970     0.32200
H334        H  0.45499684  0.05584605  0.69399274     0.35000
C335        C  0.48386635  0.01520349  0.22332530     0.20600
C336        C  0.46724160  0.02867306  0.26667141    -0.39300
C337        C  0.48274397  0.00940615  0.29318366     0.19500
C338        C  0.51252998  0.97903362  0.27767957     0.22200
C339        C  0.52918166  0.96554632  0.23429413    -0.39800
C340        C  0.51362240  0.98480183  0.20774859     0.21000
N341        N  0.47388502  0.02830463  0.19176039    -0.33100
C342        C  0.49728494  0.00601388  0.15577102    -0.10700
C343        C  0.52256146  0.97855383  0.16442421    -0.29500
N344        N  0.52275604  0.96638328  0.30931136    -0.46100
C345        C  0.49948979  0.98906095  0.34514196    -0.05300
C346        C  0.47398425  0.01609289  0.33640588    -0.22700
H347        H  0.44403007  0.05249622  0.27883653     0.19100
H348        H  0.55254108  0.94188171  0.22212718     0.17900
H349        H  0.54403483  0.95654821  0.14213747     0.14200
H350        H  0.45270907  0.03838729  0.35854834     0.14000
H351        H  0.45193752  0.05051043  0.19462486     0.32200
H352        H  0.54493984  0.94450025  0.30657156     0.35000
C353        C  0.79298778  0.49560372  0.48191182     0.20600
C354        C  0.76915165  0.48461112  0.45424324    -0.39300
C355        C  0.72565125  0.48740242  0.47260924     0.19500
C356        C  0.70726876  0.50017897  0.51524340     0.22200
C357        C  0.73109450  0.51121193  0.54289878    -0.39800
C358        C  0.77458826  0.50840626  0.52453620     0.21000
N359        N  0.83486253  0.49533699  0.47239760    -0.33100
C360        C  0.84315135  0.50804368  0.50926578    -0.10700
C361        C  0.80633145  0.51652711  0.54245278    -0.29500
N362        N  0.66542103  0.50048812  0.52477917    -0.46100
C363        C  0.65713717  0.48788583  0.48791132    -0.05300
C364        C  0.69390316  0.47936275  0.45469162    -0.22700
H365        H  0.78340691  0.47462879  0.42089609     0.19100
H366        H  0.71683263  0.52123760  0.57623735     0.17900
H367        H  0.80319910  0.52697088  0.57532521     0.14200
H368        H  0.69700730  0.46906179  0.42180261     0.14000
H369        H  0.85640541  0.48685187  0.44273169     0.32200
H370        H  0.64390044  0.50903202  0.55444485     0.35000
C371        C  0.27775878  0.51166884  0.52307594     0.20600
C372        C  0.23518392  0.51833741  0.54348622    -0.39300
C373        C  0.20871236  0.50709832  0.51842673     0.19500
C374        C  0.22356687  0.49057981  0.47628043     0.22200
C375        C  0.26610764  0.48388782  0.45589299    -0.39800
C376        C  0.29254135  0.49506951  0.48094705     0.21000
N377        N  0.30917636  0.51922570  0.54000042    -0.33100
C378        C  0.34415704  0.50719714  0.50842565    -0.10700
C379        C  0.33505302  0.49211355  0.47107598    -0.29500
N380        N  0.19219715  0.48283429  0.45932628    -0.46100
C381        C  0.15707729  0.49453287  0.49086812    -0.05300
C382        C  0.16609196  0.50970238  0.52827973    -0.22700
H383        H  0.22353021  0.53124887  0.57643134     0.19100
H384        H  0.27775164  0.47088136  0.42297292     0.17900
H385        H  0.35656526  0.48017600  0.44091614     0.14200
H386        H  0.14445950  0.52139244  0.55846144     0.14000
H387        H  0.30687737  0.53143822  0.57117065     0.32200
H388        H  0.19459994  0.47056016  0.42814583     0.35000
C389        C  0.72190725  0.49179010  0.97441467     0.20600
C390        C  0.76471867  0.48649702  0.95382061    -0.39300
C391        C  0.79066559  0.49558847  0.97950188     0.19500
C392        C  0.77514473  0.50895497  0.02237090     0.22200
C393        C  0.73234849  0.51424322  0.04295723    -0.39800
C394        C  0.70641662  0.50512131  0.01729389     0.21000
N395        N  0.69077618  0.48520839  0.95713718    -0.33100
C396        C  0.65524822  0.49445079  0.98928375    -0.10700
C397        C  0.66373354  0.50694210  0.02729510    -0.29500
N398        N  0.80618864  0.51530086  0.03973891    -0.46100
C399        C  0.84173578  0.50582699  0.00771343    -0.05300
C400        C  0.83332986  0.49346465  0.96962916    -0.22700
H401        H  0.77690269  0.47600969  0.92032243     0.19100
H402        H  0.72013671  0.52461858  0.07647743     0.17900
H403        H  0.64164057  0.51612149  0.05805921     0.14200
H404        H  0.85542819  0.48406600  0.93893656     0.14000
H405        H  0.69354406  0.47508555  0.92547169     0.32200
H406        H  0.80331844  0.52529778  0.07144652     0.35000
C407        C  0.20537471  0.50284288  0.01654519     0.20600
C408        C  0.22883594  0.51333042  0.04462765    -0.39300
C409        C  0.27236270  0.51027751  0.02669247     0.19500
C410        C  0.29106664  0.49774913  0.98406915     0.22200
C411        C  0.26761419  0.48722556  0.95601330    -0.39800
C412        C  0.22411296  0.49026918  0.97393941     0.21000
N413        N  0.16356951  0.50328968  0.02564134    -0.33100
C414        C  0.15563141  0.49090043  0.98855215    -0.10700
C415        C  0.19264739  0.48248376  0.95559687    -0.29500
N416        N  0.33287045  0.49740216  0.97487798    -0.46100
C417        C  0.34090168  0.50978750  0.01190692    -0.05300
C418        C  0.30391303  0.51808771  0.04496338    -0.22700
H419        H  0.21428629  0.52316189  0.07795660     0.19100
H420        H  0.28216945  0.47741683  0.92268017     0.17900
H421        H  0.19607664  0.47220417  0.92263649     0.14200
H422        H  0.30056450  0.52831524  0.07791444     0.14000
H423        H  0.14181278  0.51160638  0.05522330     0.32200
H424        H  0.35457739  0.48913550  0.94525011     0.35000
C425        C  0.01333769  0.48076141  0.77605866     0.20600
C426        C  0.02829262  0.46581978  0.73285496    -0.39300
C427        C  0.01441127  0.48699565  0.70623465     0.19500
C428        C  0.98774696  0.52048020  0.72153336     0.22200
C429        C  0.97280943  0.53538096  0.76469746    -0.39800
C430        C  0.98660807  0.51418235  0.79129923     0.21000
N431        N  0.02238175  0.46660210  0.80775160    -0.33100
C432        C  0.00131722  0.49126191  0.84337161    -0.10700
C433        C  0.97851016  0.52118345  0.83441265    -0.29500
N434        N  0.97823481  0.53439639  0.69002876    -0.46100
C435        C  0.99877082  0.50945379  0.65440727    -0.05300
C436        C  0.02190488  0.47966744  0.66317564    -0.22700
H437        H  0.04906076  0.43957591  0.72089025     0.19100
H438        H  0.95187466  0.56146678  0.77669551     0.17900
H439        H  0.95940550  0.54546288  0.85633996     0.14200
H440        H  0.04060992  0.45509714  0.64122486     0.14000
H441        H  0.04228850  0.44227989  0.80519495     0.32200
H442        H  0.95815441  0.55859918  0.69276908     0.35000
C443        C  0.98542240  0.51747647  0.22131841     0.20600
C444        C  0.97059670  0.53326812  0.26428827    -0.39300
C445        C  0.98600893  0.51430554  0.29107444     0.19500
C446        C  0.01404583  0.48210216  0.27612268     0.22200
C447        C  0.02885247  0.46627509  0.23313694    -0.39800
C448        C  0.01342951  0.48524150  0.20634666     0.21000
N449        N  0.97498640  0.52965976  0.18965547    -0.33100
C450        C  0.99634595  0.50491995  0.15427429    -0.10700
C451        C  0.02083080  0.47689365  0.16334027    -0.29500
N452        N  0.02450393  0.47000648  0.30782784    -0.46100
C453        C  0.00308201  0.49474428  0.34321314    -0.05300
C454        C  0.97857631  0.52268562  0.33407804    -0.22700
H455        H  0.94869914  0.55846680  0.27597805     0.19100
H456        H  0.05075201  0.44107839  0.22143835     0.17900
H457        H  0.04063308  0.45305497  0.14159052     0.14200
H458        H  0.95873153  0.54650953  0.35579049     0.14000
H459        H  0.95401828  0.55282866  0.19210653     0.32200
H460        H  0.04549445  0.44687318  0.30540593     0.35000
C461        C  0.99779658  0.79721391  0.51721160     0.20600
C462        C  0.98452773  0.76480580  0.54609049    -0.39300
C463        C  0.98436989  0.72021600  0.52824773     0.19500
C464        C  0.99653812  0.70875798  0.48495683     0.22200
C465        C  0.00981563  0.74116359  0.45607144    -0.39800
C466        C  0.00996149  0.78575042  0.47391955     0.21000
N467        N  0.00126272  0.84184830  0.52611052    -0.33100
C468        C  0.01590207  0.85895394  0.48819201    -0.10700
C469        C  0.02159167  0.82495475  0.45491431    -0.29500
N470        N  0.99331671  0.66412205  0.47606476    -0.46100
C471        C  0.97888669  0.64699169  0.51397882    -0.05300
C472        C  0.97298807  0.68099732  0.54725736    -0.22700
H473        H  0.97506009  0.77365036  0.57995371     0.19100
H474        H  0.01939712  0.73232123  0.42220375     0.17900
H475        H  0.03318547  0.82846751  0.42133252     0.14200
H476        H  0.96159060  0.67748008  0.58083581     0.14000
H477        H  0.99462183  0.85954724  0.55609895     0.32200
H478        H  0.00015085  0.64642380  0.44606792     0.35000
C479        C  0.99714915  0.20913588  0.48431501     0.20600
C480        C  0.01168913  0.24079459  0.45473358    -0.39300
C481        C  0.01285431  0.28559877  0.47178816     0.19500
C482        C  0.00047614  0.29787436  0.51496839     0.22200
C483        C  0.98598026  0.26624551  0.54452013    -0.39800
C484        C  0.98481145  0.22148202  0.52748029     0.21000
N485        N  0.99281617  0.16446974  0.47628633    -0.33100
C486        C  0.97755906  0.14831384  0.51464143    -0.10700
C487        C  0.97220613  0.18288098  0.54731829    -0.29500
N488        N  0.00474749  0.34248713  0.52311051    -0.46100
C489        C  0.02004014  0.35877536  0.48484361    -0.05300
C490        C  0.02546942  0.32431026  0.45204448    -0.22700
H491        H  0.02137295  0.23125756  0.42096938     0.19100
H492        H  0.97631349  0.27578760  0.57828413     0.17900
H493        H  0.96043540  0.18012200  0.58103132     0.14200
H494        H  0.03732098  0.32720425  0.41835497     0.14000
H495        H  0.99955956  0.14614617  0.44658173     0.32200
H496        H  0.99797009  0.36070460  0.55286893     0.35000
C497        C  0.78864478  0.99539476  0.48656068     0.20600
C498        C  0.76448929  0.98137229  0.45953739    -0.39300
C499        C  0.72148799  0.98725542  0.47694384     0.19500
C500        C  0.70385694  0.00562064  0.51811821     0.22200
C501        C  0.72802711  0.01967654  0.54513265    -0.39800
C502        C  0.77103965  0.01377828  0.52773207     0.21000
N503        N  0.83019895  0.99347306  0.47760502    -0.33100
C504        C  0.83912075  0.01070560  0.51334683    -0.10700
C505        C  0.80299463  0.02368053  0.54533482    -0.29500
N506        N  0.66230269  0.00759072  0.52703536    -0.46100
C507        C  0.65346818  0.99046727  0.49122563    -0.05300
C508        C  0.68959410  0.97743366  0.45929261    -0.22700
H509        H  0.77816764  0.96698804  0.42734045     0.19100
H510        H  0.71435556  0.03411003  0.57731059     0.17900
H511        H  0.80047739  0.03837711  0.57714900     0.14200
H512        H  0.69216246  0.96283498  0.42743817     0.14000
H513        H  0.85114852  0.98103464  0.44900930     0.32200
H514        H  0.64133239  0.02008132  0.55559281     0.35000
C515        C  0.21976513  0.99320791  0.47748896     0.20600
C516        C  0.26252184  0.98804452  0.45640819    -0.39300
C517        C  0.28866630  0.99584372  0.48187049     0.19500
C518        C  0.27333592  0.00787714  0.52500280     0.22200
C519        C  0.23058087  0.01306488  0.54608888    -0.39800
C520        C  0.20443710  0.00527097  0.52061766     0.21000
N521        N  0.18851882  0.98748065  0.46045300    -0.33100
C522        C  0.15302057  0.99595074  0.49293591    -0.10700
C523        C  0.16167085  0.00722716  0.53100583    -0.29500
N524        N  0.30456255  0.01342166  0.54204647    -0.46100
C525        C  0.34004039  0.00486039  0.50956102    -0.05300
C526        C  0.33141245  0.99374553  0.47147919    -0.22700
H527        H  0.27451876  0.97860865  0.42269488     0.19100
H528        H  0.21857646  0.02243803  0.57981436     0.17900
H529        H  0.13963902  0.01551228  0.56204589     0.14200
H530        H  0.35343004  0.98540721  0.44044514     0.14000
H531        H  0.19118829  0.97827366  0.42868082     0.32200
H532        H  0.30188370  0.02250289  0.57383804     0.35000
C533        C  0.00000900  0.79126823  0.01525834     0.20600
C534        C  0.98581445  0.75945214  0.04467172    -0.39300
C535        C  0.98499952  0.71472760  0.02740338     0.19500
C536        C  0.99748511  0.70269699  0.98418101     0.22200
C537        C  0.01172871  0.73449904  0.95479714    -0.39800
C538        C  0.01244359  0.77918584  0.97204789     0.21000
N539        N  0.00388209  0.83588487  0.02353129    -0.33100
C540        C  0.01893623  0.85228345  0.98530386    -0.10700
C541        C  0.02463283  0.81793550  0.95242187    -0.29500
N542        N  0.99345096  0.65811313  0.97580708    -0.46100
C543        C  0.97821225  0.64158099  0.01395156    -0.05300
C544        C  0.97255042  0.67587794  0.04693262    -0.22700
H545        H  0.97604617  0.76882821  0.07846368     0.19100
H546        H  0.02145775  0.72513334  0.92100539     0.17900
H547        H  0.03647289  0.82092395  0.91874638     0.14200
H548        H  0.96064633  0.67279218  0.08059061     0.14000
H549        H  0.99708096  0.85402996  0.05332274     0.32200
H550        H  0.00031965  0.64006403  0.94596932     0.35000
C551        C  0.00070035  0.20308155  0.98345957     0.20600
C552        C  0.01466160  0.23488837  0.95401249    -0.39300
C553        C  0.01371383  0.27966203  0.97117691     0.19500
C554        C  0.99987963  0.29179197  0.01436038     0.22200
C555        C  0.98587363  0.25998016  0.04381031    -0.39800
C556        C  0.98685046  0.21520545  0.02664425     0.21000
N557        N  0.99797776  0.15842665  0.97520200    -0.33100
C558        C  0.98212168  0.14195147  0.01338949    -0.10700
C559        C  0.97491585  0.17637361  0.04626155    -0.29500
N560        N  0.00265938  0.33645426  0.02260608    -0.46100
C561        C  0.01853364  0.35292825  0.98441223    -0.05300
C562        C  0.02567749  0.31848977  0.95155114    -0.22700
H563        H  0.02549205  0.22546565  0.92023952     0.19100
H564        H  0.97503027  0.26939881  0.07758377     0.17900
H565        H  0.96201286  0.17337186  0.07990500     0.14200
H566        H  0.03850735  0.32147558  0.91790242     0.14000
H567        H  0.00579498  0.14028519  0.94539785     0.32200
H568        H  0.99480370  0.35460212  0.05240637     0.35000
C569        C  0.72462569  0.99176367  0.97489047     0.20600
C570        C  0.76766140  0.98803343  0.95388899    -0.39300
C571        C  0.79371571  0.99703292  0.97945986     0.19500
C572        C  0.77806544  0.00885195  0.02260674     0.22200
C573        C  0.73503466  0.01250034  0.04361116    -0.39800
C574        C  0.70899065  0.00350516  0.01805031     0.21000
N575        N  0.69343669  0.98533489  0.95770882    -0.33100
C576        C  0.65770450  0.99313408  0.99015475    -0.10700
C577        C  0.66612121  0.00444057  0.02832450    -0.29500
N578        N  0.80920984  0.01527803  0.03983050    -0.46100
C579        C  0.84493750  0.00727876  0.00746677    -0.05300
C580        C  0.83657823  0.99596254  0.96925882    -0.22700
H581        H  0.77993604  0.97879801  0.92016121     0.19100
H582        H  0.72275110  0.02167090  0.07734915     0.17900
H583        H  0.64391902  0.01254071  0.05931055     0.14200
H584        H  0.85878518  0.98764975  0.93832888     0.14000
H585        H  0.69634365  0.97649139  0.92583737     0.32200
H586        H  0.80624763  0.02409012  0.07171816     0.35000
C587        C  0.29363737  0.99594172  0.98331007     0.20600
C588        C  0.26928978  0.98212265  0.95640658    -0.39300
C589        C  0.22586585  0.98556091  0.97475410     0.19500
C590        C  0.20800260  0.00141319  0.01670158     0.22200
C591        C  0.23234925  0.01517695  0.04361306    -0.39800
C592        C  0.27578536  0.01184986  0.02524116     0.21000
N593        N  0.33551224  0.99556631  0.97370284    -0.33100
C594        C  0.34435886  0.01119431  0.00984160    -0.10700
C595        C  0.30790897  0.02187350  0.04261077    -0.29500
N596        N  0.16617898  0.00218682  0.02621525    -0.46100
C597        C  0.15738712  0.98693051  0.98998249    -0.05300
C598        C  0.19381357  0.97605427  0.95726262    -0.22700
H599        H  0.28314161  0.96975900  0.92358323     0.19100
H600        H  0.21851877  0.02767004  0.07640047     0.17900
H601        H  0.30519299  0.03452725  0.07497953     0.14200
H602        H  0.19657179  0.96365610  0.92482887     0.14000
H603        H  0.35664073  0.98469287  0.94456424     0.32200
H604        H  0.14507495  0.01316726  0.05532677     0.35000
C605        C  0.98689440  0.01251860  0.79379602     0.20600
C606        C  0.97115879  0.03578234  0.77009593    -0.39300
C607        C  0.98373058  0.02293976  0.72642003     0.19500
C608        C  0.00986154  0.98943125  0.70783165     0.22200
C609        C  0.02551070  0.96612900  0.73152430    -0.39800
C610        C  0.01305165  0.97904778  0.77514514     0.19400
N611        N  0.98070448  0.01928265  0.83561061    -0.33100
C612        C  0.00331429  0.99008896  0.84353796    -0.10700
C613        C  0.02371345  0.96425534  0.80664138    -0.29500
N614        N  0.01660854  0.98302152  0.66594408    -0.46100
C615        C  0.99446201  0.01251438  0.65780158    -0.05300
C616        C  0.97369881  0.03816774  0.69469969    -0.22700
H617        H  0.95079117  0.06204034  0.78455698     0.19100
H618        H  0.04604035  0.94001747  0.71703302     0.17900
H619        H  0.04447349  0.93893603  0.80316288     0.14200
H620        H  0.95321411  0.06370880  0.69799573     0.14000
H621        H  0.96307372  0.04303131  0.85721185     0.32200
H622        H  0.03442367  0.95937931  0.64438145     0.35000
C623        C  0.01151364  0.98183383  0.27885604     0.20600
C624        C  0.02634465  0.96500762  0.23611606    -0.39300
C625        C  0.01295683  0.98487993  0.20831286     0.19500
C626        C  0.98692506  0.01899065  0.22212551     0.22200
C627        C  0.97217074  0.03586823  0.26483654    -0.39800
C628        C  0.98540929  0.01587506  0.29265834     0.21000
N629        N  0.02003612  0.96890951  0.31137458    -0.33100
C630        C  0.99931243  0.99490756  0.34616661    -0.10700
C631        C  0.97717801  0.02455016  0.33579998    -0.29500
N632        N  0.97777349  0.03141140  0.18977475    -0.46100
C633        C  0.99790704  0.00494071  0.15509265    -0.05300
C634        C  0.02040918  0.97556839  0.16531685    -0.22700
H635        H  0.04660544  0.93825410  0.22536581     0.19100
H636        H  0.95169943  0.06243394  0.27562060     0.17900
H637        H  0.95842939  0.04966545  0.35679191     0.14200
H638        H  0.03877136  0.95013644  0.14437824     0.14000
H639        H  0.03938740  0.94439018  0.30985989     0.32200
H640        H  0.95824938  0.05578872  0.19137301     0.35000
loop_ 
_geom_bond_atom_site_label_1 
_geom_bond_atom_site_label_2 
_geom_bond_distance 
_geom_bond_site_symmetry_2 
_ccdc_geom_bond_type 
O1           Ni7   1.931       .  S
O1           C22   1.271       .  A
O2          Ni25   1.902       .  S
O2           C11   1.265   1_645  A
O3           Ni7   1.920   1_565  S
O3          Ni25   1.910   1_564  S
O3          Ni19   1.912   1_655  S
O3           H26   0.966       .  S
C4           O21   1.273   1_556  A
C4           O13   1.275       .  A
C4          C597   1.473       .  S
O5          Ni24   1.933       .  S
O5           C11   1.271       .  A
O6          Ni24   1.905       .  S
O6            C8   1.268       .  A
Ni7          O10   1.927       .  S
Ni7          O12   1.907       .  S
C8           O18   1.271   1_556  A
C8          C540   1.469       .  S
O9          Ni25   1.909   1_565  S
O9           C15   1.272   1_566  A
O10          C15   1.274       .  A
C11         C612   1.471       .  S
O12          C14   1.268       .  A
O13         Ni24   1.927       .  S
C14          O20   1.271   1_554  A
C14         C558   1.472       .  S
C15         C579   1.470       .  S
H16          O17   0.966       .  S
O17         Ni25   1.910   1_455  S
O17         Ni19   1.912   1_546  S
O17         Ni24   1.919   1_545  S
O18         Ni19   1.925       .  S
Ni19         O23   1.905       .  S
Ni19         O21   1.913       .  S
O20         Ni25   1.926       .  S
C22          O23   1.266   1_645  A
C22         C633   1.471       .  S
O27         Ni33   1.933       .  S
O27          C48   1.271       .  A
O28         Ni51   1.908       .  S
O28          C37   1.267   1_645  A
O29         Ni33   1.920   1_565  S
O29         Ni51   1.911   1_565  S
O29         Ni45   1.908   1_655  S
O29          H52   0.966       .  S
C30          O47   1.271   1_565  A
C30          O39   1.274       .  A
C30         C522   1.470       .  S
O31         Ni50   1.931       .  S
O31          C37   1.270       .  A
O32         Ni50   1.906       .  S
O32          C34   1.268       .  A
Ni33         O36   1.926       .  S
Ni33         O38   1.906       .  S
C34          O44   1.272       .  A
C34         C468   1.475       .  S
O35         Ni51   1.911       .  S
O35          C41   1.273       .  A
O36          C41   1.275       .  A
C37         C630   1.472   1_455  S
O38          C40   1.268       .  A
O39         Ni50   1.927       .  S
C40          O46   1.271       .  A
C40         C486   1.471       .  S
C41         C504   1.471       .  S
H42          O43   0.967       .  S
O43         Ni51   1.912   1_455  S
O43         Ni45   1.912   1_545  S
O43         Ni50   1.919   1_545  S
O44         Ni45   1.932       .  S
Ni45         O49   1.902       .  S
Ni45         O47   1.908   1_565  S
O46         Ni51   1.927       .  S
C48          O49   1.265   1_645  A
C48         C615   1.470       .  S
O53         Ni59   1.930       .  S
O53          C74   1.271       .  A
O54         Ni77   1.901       .  S
O54          C63   1.266   1_655  A
O55         Ni59   1.921       .  S
O55         Ni77   1.909   1_554  S
O55         Ni71   1.914   1_655  S
O55          H78   0.966       .  S
C56          O73   1.273   1_556  A
C56          O65   1.275       .  A
C56         C414   1.474       .  S
O57         Ni76   1.932       .  S
O57          C63   1.271       .  A
O58         Ni76   1.908       .  S
O58          C60   1.269       .  A
Ni59         O62   1.928       .  S
Ni59         O64   1.905       .  S
C60          O70   1.271   1_556  A
C60         C561   1.473       .  S
O61         Ni77   1.907       .  S
O61          C67   1.271   1_556  A
O62          C67   1.274       .  A
C63         C432   1.469       .  S
O64          C66   1.268       .  A
O65         Ni76   1.927       .  S
C66          O72   1.271   1_554  A
C66         C543   1.470       .  S
C67         C399   1.470       .  S
H68          O69   0.966       .  S
O69         Ni77   1.909   1_455  S
O69         Ni71   1.908   1_556  S
O69         Ni76   1.921       .  S
O70         Ni71   1.927       .  S
Ni71         O75   1.902       .  S
Ni71         O73   1.914       .  S
O72         Ni77   1.927       .  S
C74          O75   1.266   1_655  A
C74         C450   1.469       .  S
O79         Ni85   1.935       .  S
O79         C100   1.271       .  A
O80        Ni103   1.904       .  S
O80          C89   1.267   1_655  A
O81         Ni85   1.919       .  S
O81        Ni103   1.910       .  S
O81         Ni97   1.909   1_655  S
O81         H104   0.967       .  S
C82          O99   1.271       .  A
C82          O91   1.274       .  A
C82         C381   1.472       .  S
O83        Ni102   1.931       .  S
O83          C89   1.271       .  A
O84        Ni102   1.905       .  S
O84          C86   1.268       .  A
Ni85         O88   1.926       .  S
Ni85         O90   1.908       .  S
C86          O96   1.270       .  A
C86         C489   1.470       .  S
O87        Ni103   1.914       .  S
O87          C93   1.273       .  A
O88          C93   1.275       .  A
C89         C453   1.470       .  S
O90          C92   1.269       .  A
O91        Ni102   1.929       .  S
C92          O98   1.272       .  A
C92         C471   1.475       .  S
C93         C360   1.473       .  S
H94          O95   0.966       .  S
O95        Ni103   1.914   1_455  S
O95         Ni97   1.911       .  S
O95        Ni102   1.923       .  S
O96         Ni97   1.926       .  S
Ni97        O101   1.899       .  S
Ni97         O99   1.907       .  S
O98        Ni103   1.932       .  S
C100        O101   1.264   1_655  A
C100        C435   1.470       .  S
O105       Ni111   1.932       .  S
O105        C126   1.271       .  A
O106       Ni129   1.899       .  S
O106        C115   1.265   1_545  A
O107       Ni111   1.920   1_565  S
O107       Ni129   1.910   1_564  S
O107       Ni123   1.911       .  S
O107        H130   0.967       .  S
C108        O125   1.272   1_556  A
C108        O117   1.275       .  A
C108        C576   1.470       .  S
O109       Ni128   1.934       .  S
O109        C115   1.271       .  A
O110       Ni128   1.907       .  S
O110        C112   1.268       .  A
Ni111       O114   1.928       .  S
Ni111       O116   1.907       .  S
C112        O122   1.271   1_556  A
C112        C291   1.471       .  S
O113       Ni129   1.911       .  S
O113        C119   1.272   1_556  A
O114        C119   1.275       .  A
C115        C324   1.469       .  S
O116        C118   1.269       .  A
O117       Ni128   1.927       .  S
C118        O124   1.271   1_554  A
C118        C306   1.472       .  S
C119        C594   1.473       .  S
H120        O121   0.966       .  S
O121       Ni129   1.911       .  S
O121       Ni123   1.911   1_546  S
O121       Ni128   1.922   1_545  S
O122       Ni123   1.924       .  S
Ni123       O127   1.905       .  S
Ni123       O125   1.908       .  S
O124       Ni129   1.928       .  S
C126        O127   1.266   1_545  A
C126        C342   1.472       .  S
O131       Ni137   1.931       .  S
O131        C152   1.270       .  A
O132       Ni155   1.901       .  S
O132        C141   1.266   1_545  A
O133       Ni137   1.921   1_565  S
O133       Ni155   1.911   1_565  S
O133       Ni149   1.911       .  S
O133        H156   0.968       .  S
C134        O151   1.273       .  A
C134        O143   1.274       .  A
C134        C507   1.470       .  S
O135       Ni154   1.930       .  S
O135        C141   1.270       .  A
O136       Ni154   1.907       .  S
O136        C138   1.268       .  A
Ni137       O140   1.925       .  S
Ni137       O142   1.905       .  S
C138        O148   1.270       .  A
C138        C252   1.470       .  S
O139       Ni155   1.908   1_565  S
O139        C145   1.271   1_565  A
O140        C145   1.274       .  A
C141        C345   1.468       .  S
O142        C144   1.268       .  A
O143       Ni154   1.924       .  S
C144        O150   1.271       .  A
C144        C270   1.470       .  S
C145        C525   1.469       .  S
H146        O147   0.965       .  S
O147       Ni155   1.909       .  S
O147       Ni149   1.909   1_545  S
O147       Ni154   1.920   1_545  S
O148       Ni149   1.922       .  S
Ni149       O153   1.902       .  S
Ni149       O151   1.912       .  S
O150       Ni155   1.926       .  S
C152        O153   1.266   1_545  A
C152        C327   1.469       .  S
O157       Ni163   1.936       .  S
O157        C178   1.272       .  A
O158       Ni181   1.905       .  S
O158        C167   1.266       .  A
O159       Ni163   1.921       .  S
O159       Ni181   1.912   1_554  S
O159       Ni175   1.909       .  S
O159        H182   0.966       .  S
C160        O177   1.271   1_556  A
C160        O169   1.275       .  A
C160        C396   1.469       .  S
O161       Ni180   1.930       .  S
O161        C167   1.270       .  A
O162       Ni180   1.905       .  S
O162        C164   1.267       .  A
Ni163       O166   1.928       .  S
Ni163       O168   1.910       .  S
C164        O174   1.271   1_556  A
C164        C309   1.472       .  S
O165       Ni181   1.911       .  S
O165        C171   1.273   1_556  A
O166        C171   1.275       .  A
C167        C219   1.469       .  S
O168        C170   1.269       .  A
O169       Ni180   1.929       .  S
C170        O176   1.270   1_554  A
C170        C288   1.471       .  S
C171        C417   1.473       .  S
H172        O173   0.966       .  S
O173       Ni181   1.909       .  S
O173       Ni175   1.907   1_556  S
O173       Ni180   1.918       .  S
O174       Ni175   1.928       .  S
Ni175       O179   1.901       .  S
Ni175       O177   1.904       .  S
O176       Ni181   1.923       .  S
C178        O179   1.265       .  A
C178        C237   1.472       .  S
O183       Ni189   1.931       .  S
O183        C204   1.270       .  A
O184       Ni207   1.900       .  S
O184        C193   1.265       .  A
O185       Ni189   1.921       .  S
O185       Ni207   1.909       .  S
O185       Ni201   1.910       .  S
O185        H208   0.966       .  S
C186        O203   1.272       .  A
C186        O195   1.274       .  A
C186        C363   1.470       .  S
O187       Ni206   1.933       .  S
O187        C193   1.270       .  A
O188       Ni206   1.907       .  S
O188        C190   1.269       .  A
Ni189       O192   1.931       .  S
Ni189       O194   1.905       .  S
C190        O200   1.270       .  A
C190        C273   1.471       .  S
O191       Ni207   1.904       .  S
O191        C197   1.271       .  A
O192        C197   1.275       .  A
C193        C234   1.470       .  S
O194        C196   1.267       .  A
O195       Ni206   1.924       .  S
C196        O202   1.271       .  A
C196        C255   1.471       .  S
C197        C378   1.470       .  S
H198        O199   0.967       .  S
O199       Ni207   1.908       .  S
O199       Ni201   1.912       .  S
O199       Ni206   1.921       .  S
O200       Ni201   1.925       .  S
Ni201       O205   1.904       .  S
Ni201       O203   1.910       .  S
O202       Ni207   1.927       .  S
C204        O205   1.266       .  A
C204        C216   1.469       .  S
C209        C214   1.384       .  A
C209        C210   1.403       .  A
C209        N215   1.341       .  A
C210        C211   1.401       .  A
C210        H221   1.082       .  S
C211        C220   1.379       .  A
C211        C212   1.385       .  A
C212        C213   1.403       .  A
C212        N218   1.341       .  A
C213        C214   1.401       .  A
C213        H222   1.082       .  S
C214        C217   1.379       .  A
N215        C216   1.355       .  A
N215        H225   1.045       .  S
C216        C217   1.395       .  A
C217        H223   1.082       .  S
N218        C219   1.355       .  A
N218        H226   1.045       .  S
C219        C220   1.395       .  A
C220        H224   1.082       .  S
C227        C232   1.384       .  A
C227        C228   1.404       .  A
C227        N233   1.344       .  A
C228        C229   1.403       .  A
C228        H239   1.082       .  S
C229        C238   1.379       .  A
C229        C230   1.385       .  A
C230        C231   1.402       .  A
C230        N236   1.342       .  A
C231        C232   1.401       .  A
C231        H240   1.082       .  S
C232        C235   1.377       .  A
N233        C234   1.356       .  A
N233        H243   1.045       .  S
C234        C235   1.394       .  A
C235        H241   1.082       .  S
N236        C237   1.355       .  A
N236        H244   1.045       .  S
C237        C238   1.397       .  A
C238        H242   1.082       .  S
C245        C250   1.385       .  A
C245        C246   1.403       .  A
C245        N251   1.343       .  A
C246        C247   1.402       .  A
C246        H257   1.082       .  S
C247        C256   1.378       .  A
C247        C248   1.385       .  A
C248        C249   1.402       .  A
C248        N254   1.342       .  A
C249        C250   1.401       .  A
C249        H258   1.082       .  S
C250        C253   1.376       .  A
N251        C252   1.356       .  A
N251        H261   1.045       .  S
C252        C253   1.395       .  A
C253        H259   1.083       .  S
N254        C255   1.355       .  A
N254        H262   1.045       .  S
C255        C256   1.396       .  A
C256        H260   1.082       .  S
C263        C268   1.385       .  A
C263        C264   1.401       .  A
C263        N269   1.342       .  A
C264        C265   1.401       .  A
C264        H275   1.082       .  S
C265        C274   1.376       .  A
C265        C266   1.384       .  A
C266        C267   1.404       .  A
C266        N272   1.344       .  A
C267        C268   1.403       .  A
C267        H276   1.082       .  S
C268        C271   1.378       .  A
N269        C270   1.355       .  A
N269        H279   1.045       .  S
C270        C271   1.396       .  A
C271        H277   1.082       .  S
N272        C273   1.356       .  A
N272        H280   1.045       .  S
C273        C274   1.395       .  A
C274        H278   1.082       .  S
C281        C286   1.384   1_556  A
C281        C282   1.403       .  A
C281        N287   1.343       .  A
C282        C283   1.402       .  A
C282        H293   1.082       .  S
C283        C292   1.378       .  A
C283        C284   1.385   1_556  A
C284        C285   1.402       .  A
C284        N290   1.342       .  A
C285        C286   1.401       .  A
C285        H294   1.082       .  S
C286        C289   1.378       .  A
N287        C288   1.356   1_556  A
N287        H297   1.045       .  S
C288        C289   1.395       .  A
C289        H295   1.082       .  S
N290        C291   1.355   1_554  A
N290        H298   1.045       .  S
C291        C292   1.396       .  A
C292        H296   1.082       .  S
C299        C304   1.384   1_556  A
C299        C300   1.404       .  A
C299        N305   1.344       .  A
C300        C301   1.403       .  A
C300        H311   1.082       .  S
C301        C310   1.378       .  A
C301        C302   1.385   1_556  A
C302        C303   1.403       .  A
C302        N308   1.343       .  A
C303        C304   1.402       .  A
C303        H312   1.082       .  S
C304        C307   1.377       .  A
N305        C306   1.356   1_556  A
N305        H315   1.045       .  S
C306        C307   1.395       .  A
C307        H313   1.082       .  S
N308        C309   1.356   1_554  A
N308        H316   1.045       .  S
C309        C310   1.396       .  A
C310        H314   1.082       .  S
C317        C322   1.385   1_565  A
C317        C318   1.402       .  A
C317        N323   1.342       .  A
C318        C319   1.401       .  A
C318        H329   1.082       .  S
C319        C328   1.377       .  A
C319        C320   1.385   1_565  A
C320        C321   1.403       .  A
C320        N326   1.342       .  A
C321        C322   1.402       .  A
C321        H330   1.082       .  S
C322        C325   1.378       .  A
N323        C324   1.355       .  A
N323        H333   1.045       .  S
C324        C325   1.395   1_565  A
C325        H331   1.082       .  S
N326        C327   1.356       .  A
N326        H334   1.045       .  S
C327        C328   1.394   1_545  A
C328        H332   1.082       .  S
C335        C340   1.385   1_545  A
C335        C336   1.402       .  A
C335        N341   1.342       .  A
C336        C337   1.401       .  A
C336        H347   1.082       .  S
C337        C346   1.377       .  A
C337        C338   1.384   1_545  A
C338        C339   1.404       .  A
C338        N344   1.342       .  A
C339        C340   1.403       .  A
C339        H348   1.082       .  S
C340        C343   1.379       .  A
N341        C342   1.355       .  A
N341        H351   1.045       .  S
C342        C343   1.396   1_545  A
C343        H349   1.082       .  S
N344        C345   1.356       .  A
N344        H352   1.045       .  S
C345        C346   1.394   1_565  A
C346        H350   1.082       .  S
C353        C358   1.385       .  A
C353        C354   1.403       .  A
C353        N359   1.344       .  A
C354        C355   1.402       .  A
C354        H365   1.082       .  S
C355        C364   1.376       .  A
C355        C356   1.385       .  A
C356        C357   1.402       .  A
C356        N362   1.343       .  A
C357        C358   1.402       .  A
C357        H366   1.082       .  S
C358        C361   1.376       .  A
N359        C360   1.356       .  A
N359        H369   1.045       .  S
C360        C361   1.396       .  A
C361        H367   1.082       .  S
N362        C363   1.355       .  A
N362        H370   1.045       .  S
C363        C364   1.395       .  A
C364        H368   1.082       .  S
C371        C376   1.385       .  A
C371        C372   1.403       .  A
C371        N377   1.343       .  A
C372        C373   1.403       .  A
C372        H383   1.082       .  S
C373        C382   1.378       .  A
C373        C374   1.385       .  A
C374        C375   1.402       .  A
C374        N380   1.343       .  A
C375        C376   1.401       .  A
C375        H384   1.082       .  S
C376        C379   1.376       .  A
N377        C378   1.356       .  A
N377        H387   1.045       .  S
C378        C379   1.395       .  A
C379        H385   1.083       .  S
N380        C381   1.356       .  A
N380        H388   1.045       .  S
C381        C382   1.396       .  A
C382        H386   1.082       .  S
C389        C394   1.385   1_556  A
C389        C390   1.403       .  A
C389        N395   1.343       .  A
C390        C391   1.402       .  A
C390        H401   1.082       .  S
C391        C400   1.377       .  A
C391        C392   1.385   1_556  A
C392        C393   1.402       .  A
C392        N398   1.342       .  A
C393        C394   1.401       .  A
C393        H402   1.082       .  S
C394        C397   1.376       .  A
N395        C396   1.356       .  A
N395        H405   1.045       .  S
C396        C397   1.395   1_556  A
C397        H403   1.083       .  S
N398        C399   1.356       .  A
N398        H406   1.045       .  S
C399        C400   1.395   1_554  A
C400        H404   1.082       .  S
C407        C412   1.384   1_554  A
C407        C408   1.404       .  A
C407        N413   1.344       .  A
C408        C409   1.403       .  A
C408        H419   1.082       .  S
C409        C418   1.378       .  A
C409        C410   1.384   1_554  A
C410        C411   1.403       .  A
C410        N416   1.344       .  A
C411        C412   1.402       .  A
C411        H420   1.082       .  S
C412        C415   1.377       .  A
N413        C414   1.356   1_554  A
N413        H423   1.045       .  S
C414        C415   1.396       .  A
C415        H421   1.082       .  S
N416        C417   1.356   1_556  A
N416        H424   1.045       .  S
C417        C418   1.396       .  A
C418        H422   1.082       .  S
C425        C430   1.385   1_455  A
C425        C426   1.404       .  A
C425        N431   1.343       .  A
C426        C427   1.403       .  A
C426        H437   1.082       .  S
C427        C436   1.378       .  A
C427        C428   1.385   1_455  A
C428        C429   1.402       .  A
C428        N434   1.342       .  A
C429        C430   1.401       .  A
C429        H438   1.082       .  S
C430        C433   1.377       .  A
N431        C432   1.356       .  A
N431        H441   1.045       .  S
C432        C433   1.394   1_455  A
C433        H439   1.082       .  S
N434        C435   1.355       .  A
N434        H442   1.045       .  S
C435        C436   1.396   1_655  A
C436        H440   1.083       .  S
C443        C448   1.385   1_655  A
C443        C444   1.403       .  A
C443        N449   1.341       .  A
C444        C445   1.401       .  A
C444        H455   1.082       .  S
C445        C454   1.378       .  A
C445        C446   1.384   1_655  A
C446        C447   1.403       .  A
C446        N452   1.342       .  A
C447        C448   1.402       .  A
C447        H456   1.082       .  S
C448        C451   1.378       .  A
N449        C450   1.355       .  A
N449        H459   1.045       .  S
C450        C451   1.395   1_655  A
C451        H457   1.082       .  S
N452        C453   1.356       .  A
N452        H460   1.045       .  S
C453        C454   1.395   1_455  A
C454        H458   1.082       .  S
C461        C466   1.384   1_655  A
C461        C462   1.404       .  A
C461        N467   1.345   1_655  A
C462        C463   1.404       .  A
C462        H473   1.082       .  S
C463        C472   1.378       .  A
C463        C464   1.384       .  A
C464        C465   1.404   1_655  A
C464        N470   1.345       .  A
C465        C466   1.404       .  A
C465        H474   1.082       .  S
C466        C469   1.378       .  A
N467        C468   1.356       .  A
N467        H477   1.045   1_455  S
C468        C469   1.396       .  A
C469        H475   1.082       .  S
N470        C471   1.356       .  A
N470        H478   1.045   1_655  S
C471        C472   1.396       .  A
C472        H476   1.082       .  S
C479        C484   1.385       .  A
C479        C480   1.403   1_655  A
C479        N485   1.344       .  A
C480        C481   1.403       .  A
C480        H491   1.082       .  S
C481        C490   1.377       .  A
C481        C482   1.385       .  A
C482        C483   1.402   1_455  A
C482        N488   1.342       .  A
C483        C484   1.401       .  A
C483        H492   1.082       .  S
C484        C487   1.376       .  A
N485        C486   1.356       .  A
N485        H495   1.045       .  S
C486        C487   1.395       .  A
C487        H493   1.082       .  S
N488        C489   1.355       .  A
N488        H496   1.045   1_455  S
C489        C490   1.395       .  A
C490        H494   1.082       .  S
C497        C502   1.385   1_565  A
C497        C498   1.402       .  A
C497        N503   1.343       .  A
C498        C499   1.402       .  A
C498        H509   1.082       .  S
C499        C508   1.376       .  A
C499        C500   1.385   1_565  A
C500        C501   1.403       .  A
C500        N506   1.344       .  A
C501        C502   1.402       .  A
C501        H510   1.082       .  S
C502        C505   1.377       .  A
N503        C504   1.355   1_565  A
N503        H513   1.045       .  S
C504        C505   1.396       .  A
C505        H511   1.082       .  S
N506        C507   1.355   1_545  A
N506        H514   1.045       .  S
C507        C508   1.396       .  A
C508        H512   1.082       .  S
C515        C520   1.385   1_565  A
C515        C516   1.403       .  A
C515        N521   1.342       .  A
C516        C517   1.401       .  A
C516        H527   1.082       .  S
C517        C526   1.378       .  A
C517        C518   1.385   1_565  A
C518        C519   1.403       .  A
C518        N524   1.342       .  A
C519        C520   1.401       .  A
C519        H528   1.082       .  S
C520        C523   1.378       .  A
N521        C522   1.355       .  A
N521        H531   1.045       .  S
C522        C523   1.395   1_565  A
C523        H529   1.083       .  S
N524        C525   1.356       .  A
N524        H532   1.045       .  S
C525        C526   1.395   1_545  A
C526        H530   1.083       .  S
C533        C538   1.385   1_554  A
C533        C534   1.403   1_455  A
C533        N539   1.342       .  A
C534        C535   1.402       .  A
C534        H545   1.082       .  S
C535        C544   1.377       .  A
C535        C536   1.385   1_554  A
C536        C537   1.402   1_655  A
C536        N542   1.342       .  A
C537        C538   1.401       .  A
C537        H546   1.082       .  S
C538        C541   1.376       .  A
N539        C540   1.356   1_554  A
N539        H549   1.045   1_455  S
C540        C541   1.395       .  A
C541        H547   1.082       .  S
N542        C543   1.355   1_556  A
N542        H550   1.045   1_655  S
C543        C544   1.396       .  A
C544        H548   1.082       .  S
C551        C556   1.384   1_456  A
C551        C552   1.403       .  A
C551        N557   1.343   1_455  A
C552        C553   1.403       .  A
C552        H563   1.082       .  S
C553        C562   1.378       .  A
C553        C554   1.384   1_456  A
C554        C555   1.404       .  A
C554        N560   1.343   1_655  A
C555        C556   1.403       .  A
C555        H564   1.082       .  S
C556        C559   1.378       .  A
N557        C558   1.356   1_556  A
N557        H567   1.045   1_655  S
C558        C559   1.396       .  A
C559        H565   1.082       .  S
N560        C561   1.356   1_554  A
N560        H568   1.045   1_455  S
C561        C562   1.396       .  A
C562        H566   1.082       .  S
C569        C574   1.385   1_566  A
C569        C570   1.403       .  A
C569        N575   1.343       .  A
C570        C571   1.402       .  A
C570        H581   1.082       .  S
C571        C580   1.377       .  A
C571        C572   1.385   1_566  A
C572        C573   1.402       .  A
C572        N578   1.342       .  A
C573        C574   1.401       .  A
C573        H582   1.082       .  S
C574        C577   1.377       .  A
N575        C576   1.356       .  A
N575        H585   1.045       .  S
C576        C577   1.395   1_566  A
C577        H583   1.083       .  S
N578        C579   1.356       .  A
N578        H586   1.045       .  S
C579        C580   1.395   1_544  A
C580        H584   1.082       .  S
C587        C592   1.384   1_566  A
C587        C588   1.403       .  A
C587        N593   1.344       .  A
C588        C589   1.403       .  A
C588        H599   1.082       .  S
C589        C598   1.377       .  A
C589        C590   1.385   1_566  A
C590        C591   1.403       .  A
C590        N596   1.345       .  A
C591        C592   1.403       .  A
C591        H600   1.082       .  S
C592        C595   1.377       .  A
N593        C594   1.356   1_566  A
N593        H603   1.045       .  S
C594        C595   1.396       .  A
C595        H601   1.082       .  S
N596        C597   1.356   1_544  A
N596        H604   1.045       .  S
C597        C598   1.396       .  A
C598        H602   1.082       .  S
C605        C610   1.385   1_645  A
C605        C606   1.403       .  A
C605        N611   1.344       .  A
C606        C607   1.403       .  A
C606        H617   1.082       .  S
C607        C616   1.377       .  A
C607        C608   1.385   1_645  A
C608        C609   1.402       .  A
C608        N614   1.343       .  A
C609        C610   1.401       .  A
C609        H618   1.082       .  S
C610        C613   1.376       .  A
N611        C612   1.356   1_645  A
N611        H621   1.045       .  S
C612        C613   1.395       .  A
C613        H619   1.082       .  S
N614        C615   1.355   1_465  A
N614        H622   1.045       .  S
C615        C616   1.396       .  A
C616        H620   1.082       .  S
C623        C628   1.384   1_465  A
C623        C624   1.404       .  A
C623        N629   1.342       .  A
C624        C625   1.402       .  A
C624        H635   1.082       .  S
C625        C634   1.380       .  A
C625        C626   1.384   1_465  A
C626        C627   1.404       .  A
C626        N632   1.342       .  A
C627        C628   1.402       .  A
C627        H636   1.082       .  S
C628        C631   1.380       .  A
N629        C630   1.356   1_455  A
N629        H639   1.045       .  S
C630        C631   1.396   1_565  A
C631        H637   1.082       .  S
N632        C633   1.356       .  A
N632        H640   1.045       .  S
C633        C634   1.396   1_645  A
C634        H638   1.082       .  S
