geometry optimzed in LAMMPS
_audit_creation_date              2020-12-01 
_audit_creation_method            'lammps2cif' 
_symmetry_space_group_name_H-M    'P1' 
_symmetry_Int_Tables_number       1 
_symmetry_cell_setting            triclinic 
loop_ 
_symmetry_equiv_pos_as_xyz 
  x,y,z 
_cell_length_a                    42.9959188 
_cell_length_b                    41.90724238800383 
_cell_length_c                    42.255788042566174 
_cell_angle_alpha                 88.84139860788149 
_cell_angle_beta                  90.65536196070346 
_cell_angle_gamma                 90.21796419840904 
loop_ 
_atom_site_label 
_atom_site_type_symbol 
_atom_site_fract_x 
_atom_site_fract_y 
_atom_site_fract_z 
_atom_site_charge 
C1          C  0.11701772  0.09753848  0.13969437    -0.02600
C2          C  0.88938665  0.09275600  0.89377357    -0.02600
C3          C  0.90866520  0.88457086  0.10966968    -0.02600
C4          C  0.10629731  0.91614863  0.86214646    -0.02600
C5          C  0.01826360  0.00359130  0.00500909    -0.02600
N6          N  0.84712859  0.76439329  0.50604244    -0.27400
N7          N  0.85140094  0.79303449  0.49301254    -0.35300
C8          C  0.88140479  0.79537084  0.48427965     0.00900
C9          C  0.89692121  0.76696586  0.49196972     0.07000
C10         C  0.87419739  0.74788330  0.50583575    -0.06100
H11         H  0.89177493  0.81691297  0.47448947     0.07600
H12         H  0.87753364  0.72458706  0.51681682     0.08800
Cu13       Cu  0.81638264  0.82909311  0.49039477     0.44200
Cu14       Cu  0.80483791  0.75155118  0.52627266     0.42000
Cu15       Cu  0.74007150  0.81068683  0.51791638     0.43900
N16         N  0.77909190  0.86264660  0.49104417    -0.34800
N17         N  0.75070992  0.85565259  0.50078241    -0.29000
C18         C  0.73335602  0.88253096  0.50169786    -0.05100
C19         C  0.75168227  0.90804460  0.49206395     0.07100
C20         C  0.78040899  0.89433117  0.48543738     0.00900
H21         H  0.71018215  0.88369455  0.51130193     0.08500
H22         H  0.80148859  0.90700130  0.47910087     0.07600
N23         N  0.73750849  0.76713789  0.54119512    -0.36200
N24         N  0.76045838  0.74639783  0.54505704    -0.28400
C25         C  0.75030636  0.72178979  0.56310984    -0.03700
C26         C  0.71956580  0.72730403  0.57078695     0.04900
C27         C  0.71229736  0.75623857  0.55642871     0.03000
H28         H  0.76424317  0.70124983  0.56979087     0.08100
H29         H  0.69048001  0.76892579  0.55741580     0.07000
N30         N  0.47998038  0.85353581  0.77055398    -0.27400
N31         N  0.49255782  0.86018796  0.79840184    -0.35300
C32         C  0.50016742  0.89137942  0.79811345     0.00900
C33         C  0.49231488  0.90515173  0.76878095     0.07000
C34         C  0.47956052  0.88021812  0.75185128    -0.06100
H35         H  0.50996130  0.90358285  0.81825573     0.07600
H36         H  0.46945743  0.88161803  0.72830311     0.08800
Cu37       Cu  0.49757341  0.82676852  0.83681677     0.44200
Cu38       Cu  0.46279562  0.80831745  0.76100232     0.42000
Cu39       Cu  0.46711850  0.74863352  0.82713865     0.43900
N40         N  0.49955785  0.79044927  0.87283283    -0.34800
N41         N  0.48812760  0.76142460  0.86911947    -0.29000
C42         C  0.49113205  0.74424614  0.89644991    -0.05100
C43         C  0.50507683  0.76339520  0.91884728     0.07100
C44         C  0.51002681  0.79247625  0.90288591     0.00900
H45         H  0.48214295  0.72033835  0.90018350     0.08500
H46         H  0.51919364  0.81412884  0.91301873     0.07600
N47         N  0.45465978  0.73888150  0.78106405    -0.36200
N48         N  0.45341876  0.75987068  0.75727690    -0.28400
C49         C  0.45399851  0.74404128  0.72995919    -0.03700
C50         C  0.45629442  0.71170392  0.73676332     0.04900
C51         C  0.45609037  0.70942979  0.76941239     0.03000
H52         H  0.45832962  0.75542609  0.70721042     0.08100
H53         H  0.46246180  0.68856530  0.78351309     0.07000
N54         N  0.51575597  0.86026363  0.25929974    -0.27400
N55         N  0.50805200  0.86571730  0.22929876    -0.35300
C56         C  0.49980322  0.89651430  0.22608569     0.00900
C57         C  0.50239734  0.91136050  0.25528865     0.07000
C58         C  0.51262218  0.88740559  0.27589892    -0.06100
H59         H  0.49344615  0.90779524  0.20368404     0.07600
H60         H  0.51846545  0.88972398  0.30071557     0.08800
Cu61       Cu  0.51083510  0.83125294  0.19310237     0.44200
Cu62       Cu  0.53066878  0.81563541  0.27430738     0.42000
Cu63       Cu  0.53615885  0.75233564  0.21266683     0.43900
N64         N  0.51475219  0.79452676  0.15929335    -0.34800
N65         N  0.52398459  0.76515487  0.16641412    -0.29000
C66         C  0.52393803  0.74750755  0.13984926    -0.05100
C67         C  0.51440005  0.76678130  0.11449817     0.07100
C68         C  0.50893866  0.79636039  0.12792582     0.00900
H69         H  0.53118871  0.72285566  0.13895285     0.08500
H70         H  0.50165300  0.81793846  0.11549507     0.07600
N71         N  0.53822650  0.74496999  0.26143424    -0.36200
N72         N  0.53619455  0.76729112  0.28303538    -0.28400
C73         C  0.53011168  0.75338274  0.31117102    -0.03700
C74         C  0.52748142  0.72079869  0.30723936     0.04900
C75         C  0.53357153  0.71636731  0.27547427     0.03000
H76         H  0.52334248  0.76650857  0.33175880     0.08100
H77         H  0.53084821  0.69452820  0.26252398     0.07000
N78         N  0.86669105  0.52281844  0.24278267    -0.27400
N79         N  0.87032186  0.50736787  0.21612453    -0.35300
C80         C  0.89985745  0.49674547  0.21557908     0.00900
C81         C  0.91536831  0.50552737  0.24334477     0.07000
C82         C  0.89339723  0.52209765  0.25999683    -0.06100
H83         H  0.90988253  0.48462734  0.19577482     0.07600
H84         H  0.89698196  0.53429136  0.28207022     0.08800
Cu85       Cu  0.83437802  0.50345563  0.18115230     0.44200
Cu86       Cu  0.82520081  0.54424226  0.25321836     0.42000
Cu87       Cu  0.75782635  0.53331818  0.19848801     0.43900
N88         N  0.79599076  0.50335006  0.14868599    -0.34800
N89         N  0.76802571  0.51472773  0.15462771    -0.29000
C90         C  0.74981415  0.51297568  0.12827030    -0.05100
C91         C  0.76711837  0.49978695  0.10435513     0.07100
C92         C  0.79616587  0.49408735  0.11840101     0.00900
H93         H  0.72642020  0.52226068  0.12622647     0.08500
H94         H  0.81660958  0.48527983  0.10674445     0.07600
N95         N  0.75517469  0.54273237  0.24648805    -0.36200
N96         N  0.77926115  0.54781755  0.26547938    -0.28400
C97         C  0.77018896  0.54484128  0.29563679    -0.03700
C98         C  0.73899807  0.53659790  0.29602673     0.04900
C99         C  0.73018407  0.53626318  0.26429004     0.03000
H100        H  0.78635726  0.54415986  0.31540056     0.08100
H101        H  0.70855007  0.52728984  0.25461001     0.07000
O102        O  0.50616861  0.73115558  0.96835369    -0.73100
O103        O  0.51266794  0.73262283  0.06759486    -0.74000
O104        O  0.46395578  0.73043996  0.02034032    -0.62700
O105        O  0.55495318  0.72520749  0.01586484    -0.71100
O106        O  0.56114584  0.77765090  0.01504297    -0.70600
O107        O  0.46341947  0.78302986  0.01470859    -0.61900
O108        O  0.51284266  0.78521329  0.06187007    -0.74400
O109        O  0.51211422  0.78361411  0.96930651    -0.73200
Cu110      Cu  0.50939950  0.72799854  0.01816608     1.04600
Cu111      Cu  0.51253314  0.78423304  0.01534008     1.04300
C112        C  0.50814177  0.75846863  0.95370599     0.93100
C113        C  0.51326953  0.76061950  0.07982570     0.92300
C114        C  0.44872664  0.75612803  0.01708436     0.84400
C115        C  0.57284560  0.74928036  0.01471662     0.90700
O116        O  0.73395774  0.49902313  0.05601381    -0.73100
O117        O  0.73461513  0.49692068  0.95631454    -0.74000
O118        O  0.72980793  0.45117609  0.00762141    -0.62700
O119        O  0.73009516  0.54425303  0.00459811    -0.71100
O120        O  0.78140668  0.54788846  0.00629383    -0.70600
O121        O  0.78102040  0.44687259  0.00724221    -0.61900
O122        O  0.78589194  0.49799320  0.96111896    -0.74400
O123        O  0.78521318  0.49677136  0.05295101    -0.73200
Cu124      Cu  0.73029976  0.49777807  0.00610265     1.04600
Cu125      Cu  0.78518378  0.49736039  0.00696217     1.04300
C126        C  0.76105696  0.49833111  0.06960677     0.93100
C127        C  0.76186920  0.49746430  0.94365508     0.92300
C128        C  0.75374949  0.43371317  0.00740885     0.84400
C129        C  0.75435548  0.56137274  0.00529376     0.90700
N130        N  0.65759199  0.74417982  0.00319379    -0.27400
N131        N  0.65081671  0.71383317  0.00907033    -0.35300
C132        C  0.62005455  0.71181085  0.01480980     0.00900
C133        C  0.60680604  0.74222345  0.01259474     0.07000
C134        C  0.63156310  0.76213507  0.00515548    -0.06100
H135        H  0.60789156  0.68963417  0.01969834     0.07600
H136        H  0.63065293  0.78762792  0.00070991     0.08800
Cu137      Cu  0.68460671  0.67642011  0.00794354     0.44200
Cu138      Cu  0.70247805  0.75845629  0.99250862     0.42000
Cu139      Cu  0.76446482  0.69626093  0.99017117     0.43900
N140        N  0.72137527  0.64221543  0.00532652    -0.34800
N141        N  0.75066369  0.64938669  0.99884113    -0.29000
C142        C  0.76789634  0.62231244  0.99862751    -0.05100
C143        C  0.74855141  0.59653266  0.00517596     0.07100
C144        C  0.71933345  0.61029861  0.00919947     0.00900
H145        H  0.79241863  0.62145989  0.99327710     0.08500
H146        H  0.69785357  0.59771259  0.01414535     0.07600
N147        N  0.77173231  0.74529828  0.98772745    -0.36200
N148        N  0.74972332  0.76723837  0.98848869    -0.28400
C149        C  0.76303933  0.79601655  0.99185089    -0.03700
C150        C  0.79501751  0.79225627  0.99367832     0.04900
C151        C  0.79956649  0.75968338  0.99056776     0.03000
H152        H  0.75006288  0.81754197  0.99604758     0.08100
H153        H  0.82122044  0.74679940  0.99295301     0.07000
N154        N  0.85862749  0.50462359  0.76349127    -0.27400
N155        N  0.86560290  0.50540616  0.79405740    -0.35300
C156        C  0.89663506  0.50876031  0.79706221     0.00900
C157        C  0.90997657  0.51024383  0.76713207     0.07000
C158        C  0.88499192  0.50748734  0.74636500    -0.06100
H159        H  0.90879781  0.51006780  0.81956458     0.07600
H160        H  0.88583342  0.50758610  0.72078813     0.08800
Cu161      Cu  0.83237026  0.50207409  0.83094369     0.44200
Cu162      Cu  0.81300192  0.49995906  0.74763295     0.42000
Cu163      Cu  0.75405306  0.48471501  0.81057101     0.43900
N164        N  0.79600380  0.49830686  0.86458847    -0.34800
N165        N  0.76683574  0.49154293  0.85705632    -0.29000
C166        C  0.74916850  0.49092661  0.88341777    -0.05100
C167        C  0.76820930  0.49751671  0.90910727     0.07100
C168        C  0.79766677  0.50198209  0.89609782     0.00900
H169        H  0.72454431  0.48556873  0.88381963     0.08500
H170        H  0.81897720  0.50721062  0.90887970     0.07600
N171        N  0.74478620  0.49012791  0.76283398    -0.36200
N172        N  0.76521571  0.49673566  0.74043327    -0.28400
C173        C  0.74969271  0.50484755  0.71366242    -0.03700
C174        C  0.71805076  0.50351374  0.71960326     0.04900
C175        C  0.71598329  0.49371292  0.75094451     0.03000
H176        H  0.76071962  0.51380081  0.69236720     0.08100
H177        H  0.69522525  0.49171558  0.76505068     0.07000
N178        N  0.23590746  0.86560488  0.51038497    -0.27400
N179        N  0.20635162  0.87357978  0.51343734    -0.35300
C180        C  0.20511358  0.90546506  0.51638762     0.00900
C181        C  0.23512345  0.91832440  0.51504245     0.07000
C182        C  0.25408371  0.89210618  0.51114635    -0.06100
H183        H  0.18369216  0.91865549  0.51866133     0.07600
H184        H  0.27906894  0.89225219  0.50841702     0.08800
Cu185      Cu  0.16826407  0.84056088  0.51219979     0.44200
Cu186      Cu  0.24887779  0.81863850  0.50459425     0.42000
Cu187      Cu  0.18610102  0.75750708  0.51198288     0.43900
N188        N  0.13373284  0.80368687  0.51023458    -0.34800
N189        N  0.14059807  0.77294145  0.51087005    -0.29000
C190        C  0.11427606  0.75532175  0.50817453    -0.05100
C191        C  0.08923543  0.77586483  0.50559871     0.07100
C192        C  0.10258117  0.80630374  0.50711632     0.00900
H193        H  0.11357263  0.72954592  0.50737366     0.08500
H194        H  0.09037201  0.82882291  0.50555626     0.07600
N195        N  0.23210403  0.74826776  0.50235579    -0.36200
N196        N  0.25418834  0.77005735  0.49861999    -0.28400
C197        C  0.27977315  0.75590580  0.48772194    -0.03700
C198        C  0.27350314  0.72371683  0.48441136     0.04900
C199        C  0.24316081  0.71972483  0.49415064     0.03000
H200        H  0.30091389  0.76847982  0.48146537     0.08100
H201        H  0.22929620  0.69817243  0.49306364     0.07000
O202        O  0.94568326  0.73602807  0.49588183    -0.73100
O203        O  0.04333237  0.74066681  0.50080612    -0.74000
O204        O  0.99294580  0.73709411  0.54356335    -0.62700
O205        O  0.99660320  0.73107538  0.45178276    -0.71100
O206        O  0.99798057  0.78345131  0.44423408    -0.70600
O207        O  0.98787249  0.78962368  0.54286200    -0.61900
O208        O  0.03792719  0.79315220  0.49845081    -0.74400
O209        O  0.94715022  0.78838559  0.48824986    -0.73200
Cu210      Cu  0.99469578  0.73437943  0.49798440     1.04600
Cu211      Cu  0.99262206  0.79053846  0.49316859     1.04300
C212        C  0.93145481  0.76293673  0.49175514     0.93100
C213        C  0.05537293  0.76897936  0.50137124     0.92300
C214        C  0.98950496  0.76273355  0.55832075     0.84400
C215        C  0.99873188  0.75495136  0.43308986     0.90700
O216        O  0.01078038  0.47024414  0.78353313    -0.73100
O217        O  0.00146391  0.56995954  0.77816519    -0.74000
O218        O  0.96106415  0.51566324  0.78565276    -0.62700
O219        O  0.05183474  0.52485831  0.78345827    -0.71100
O220        O  0.05355309  0.52043430  0.73139343    -0.70600
O221        O  0.95627475  0.51484873  0.73346621    -0.61900
O222        O  0.00227899  0.56474775  0.72617645    -0.74400
O223        O  0.00740791  0.47170626  0.73122415    -0.73200
Cu224      Cu  0.00636885  0.52030731  0.78455320     1.04600
Cu225      Cu  0.00482416  0.51799914  0.72874474     1.04300
C226        C  0.01021691  0.45575093  0.75682593     0.93100
C227        C  0.00048777  0.58250899  0.75000568     0.92300
C228        C  0.94391080  0.51378773  0.76118437     0.84400
C229        C  0.06758388  0.52319330  0.75838438     0.90700
N230        N  0.97588259  0.76125930  0.64411635    -0.27400
N231        N  0.98677654  0.73222970  0.63983173    -0.35300
C232        C  0.99408037  0.72976073  0.60918240     0.00900
C233        C  0.98764549  0.75848665  0.59324299     0.07000
C234        C  0.97609314  0.77804240  0.61634548    -0.06100
H235        H  0.00277741  0.70815919  0.59887628     0.07600
H236        H  0.96761779  0.80217571  0.61313340     0.08800
Cu237      Cu  0.99031947  0.69627600  0.67580137     0.44200
Cu238      Cu  0.96208060  0.77490635  0.68838305     0.42000
Cu239      Cu  0.97275124  0.71506796  0.75531384     0.43900
N240        N  0.99217037  0.66237227  0.71379405    -0.34800
N241        N  0.98567505  0.66910467  0.74342761    -0.29000
C242        C  0.98845359  0.64233799  0.76182387    -0.05100
C243        C  0.99703839  0.61732135  0.74278675     0.07100
C244        C  0.99907032  0.63112997  0.71256970     0.00900
H245        H  0.98374157  0.64104598  0.78690952     0.08500
H246        H  0.00462080  0.61900883  0.69099057     0.07600
N247        N  0.96600491  0.76393519  0.75963944    -0.36200
N248        N  0.96177157  0.78476405  0.73599648    -0.28400
C249        C  0.96576481  0.81437631  0.74684945    -0.03700
C250        C  0.97281474  0.81232444  0.77871744     0.04900
C251        C  0.97267374  0.78004337  0.78603549     0.03000
H252        H  0.96811416  0.83539385  0.73174988     0.08100
H253        H  0.98139713  0.76898251  0.80771540     0.07000
N254        N  0.15164619  0.50891018  0.76205941    -0.27400
N255        N  0.14746013  0.52328489  0.78924106    -0.35300
C256        C  0.11748557  0.53241075  0.79046336     0.00900
C257        C  0.10200180  0.52361050  0.76274143     0.07000
C258        C  0.12461694  0.50867020  0.74528952    -0.06100
H259        H  0.10711812  0.54314494  0.81087456     0.07600
H260        H  0.12121696  0.49658284  0.72312819     0.08800
Cu261      Cu  0.18274613  0.52682521  0.82476181     0.44200
Cu262      Cu  0.19391359  0.48821675  0.75158448     0.42000
Cu263      Cu  0.26098056  0.50397272  0.80597640     0.43900
N264        N  0.22052190  0.52613382  0.85779213    -0.34800
N265        N  0.24937605  0.51822146  0.85084694    -0.29000
C266        C  0.26695245  0.51669868  0.87765119    -0.05100
C267        C  0.24826718  0.52391667  0.90295767     0.07100
C268        C  0.21911598  0.52989644  0.88927405     0.00900
H269        H  0.29075945  0.50846563  0.87883950     0.08500
H270        H  0.19782586  0.53463028  0.90173679     0.07600
N271        N  0.26355223  0.48132469  0.76304296    -0.36200
N272        N  0.23939031  0.47368696  0.74495535    -0.28400
C273        C  0.24943011  0.45680969  0.72041736    -0.03700
C274        C  0.28133856  0.45422758  0.72292777     0.04900
C275        C  0.28961470  0.47012058  0.75004509     0.03000
H276        H  0.23468189  0.44797433  0.70159170     0.08100
H277        H  0.31277947  0.47289208  0.75990592     0.07000
N278        N  0.85197565  0.24839016  0.52889385    -0.27400
N279        N  0.85858759  0.21920296  0.51983177    -0.35300
C280        C  0.88943629  0.21793415  0.51478724     0.00900
C281        C  0.90280835  0.24772673  0.52061258     0.07000
C282        C  0.87812458  0.26647725  0.52948198    -0.06100
H283        H  0.90154297  0.19664666  0.50782640     0.07600
H284        H  0.87914973  0.29105349  0.53678986     0.08800
Cu285      Cu  0.82440640  0.18237319  0.51531639     0.44200
Cu286      Cu  0.80725729  0.26084392  0.54007584     0.42000
Cu287      Cu  0.74355690  0.20220890  0.52729599     0.43900
N288        N  0.78678319  0.14907658  0.51204558    -0.34800
N289        N  0.75720012  0.15631320  0.51633458    -0.29000
C290        C  0.73935795  0.12977432  0.51331795    -0.05100
C291        C  0.75856820  0.10430271  0.50689440     0.07100
C292        C  0.78838600  0.11762794  0.50630090     0.00900
H293        H  0.71442937  0.12898269  0.51644013     0.08500
H294        H  0.80991331  0.10502310  0.50256592     0.07600
N295        N  0.73762046  0.25060846  0.53492228    -0.36200
N296        N  0.76052009  0.27106356  0.54024350    -0.28400
C297        C  0.74958687  0.30086931  0.53724823    -0.03700
C298        C  0.71840012  0.29937695  0.52958312     0.04900
C299        C  0.71151073  0.26715386  0.52844961     0.03000
H300        H  0.76421455  0.32191645  0.53594147     0.08100
H301        H  0.69039039  0.25668254  0.51903887     0.07000
O302        O  0.77511129  0.05154040  0.50314216    -0.73100
O303        O  0.77169574  0.95892989  0.49840423    -0.74000
O304        O  0.77070618  0.00760417  0.45121284    -0.62700
O305        O  0.76765119  0.00142083  0.55051117    -0.71100
O306        O  0.71645950  0.00348086  0.54494113    -0.70600
O307        O  0.71944477  0.01169785  0.45279697    -0.61900
O308        O  0.72029738  0.95726060  0.49547625    -0.74400
O309        O  0.72398578  0.05729733  0.50271344    -0.73200
Cu310      Cu  0.77308451  0.00495210  0.50095257     1.04600
Cu311      Cu  0.71821256  0.00754064  0.49891555     1.04300
C312        C  0.75158807  0.06956189  0.50402698     0.93100
C313        C  0.74691145  0.94294018  0.49550670     0.92300
C314        C  0.74410243  0.01005041  0.43685533     0.84400
C315        C  0.74021920  0.00119226  0.56275837     0.90700
O316        O  0.49610475  0.95787461  0.78511416    -0.73100
O317        O  0.50292276  0.05076127  0.77961926    -0.74000
O318        O  0.45072869  0.00857874  0.78092943    -0.62700
O319        O  0.54757655  0.00047591  0.77615852    -0.71100
O320        O  0.54110609  0.99960382  0.72411598    -0.70600
O321        O  0.45080970  0.00552838  0.72868926    -0.61900
O322        O  0.49983598  0.05263104  0.72730614    -0.74400
O323        O  0.49270504  0.95259899  0.73317931    -0.73200
Cu324      Cu  0.49941153  0.00442585  0.78229169     1.04600
Cu325      Cu  0.49596277  0.00248067  0.72648883     1.04300
C326        C  0.49364970  0.94005405  0.76136400     0.93100
C327        C  0.50268973  0.06693149  0.75399146     0.92300
C328        C  0.43595910  0.00840841  0.75415155     0.84400
C329        C  0.55901073  0.99922638  0.74808397     0.90700
N330        N  0.64291293  0.98586600  0.74218544    -0.27400
N331        N  0.63619415  0.99480428  0.71271407    -0.35300
C332        C  0.60567541  0.00182928  0.71124714     0.00900
C333        C  0.59270189  0.99736252  0.74116186     0.07000
C334        C  0.61719990  0.98730126  0.76023047    -0.06100
H335        H  0.59347355  0.00899637  0.68973518     0.07600
H336        H  0.61626546  0.98038277  0.78500659     0.08800
Cu337      Cu  0.66942292  0.99589289  0.67557436     0.44200
Cu338      Cu  0.68691145  0.97165500  0.75527520     0.42000
Cu339      Cu  0.74866204  0.97466341  0.69462016     0.43900
N340        N  0.70606102  0.99513161  0.64191933    -0.34800
N341        N  0.73512387  0.98714014  0.64890058    -0.29000
C342        C  0.75260989  0.98881554  0.62243746    -0.05100
C343        C  0.73368116  0.99825005  0.59726432     0.07100
C344        C  0.70439037  0.00192398  0.61066024     0.00900
H345        H  0.77705125  0.98292021  0.62154587     0.08500
H346        H  0.68316487  0.00865174  0.59827953     0.07600
N347        N  0.75596913  0.97163910  0.74308581    -0.36200
N348        N  0.73382439  0.96979575  0.76452436    -0.28400
C349        C  0.74614850  0.97539662  0.79315272    -0.03700
C350        C  0.77743384  0.98175765  0.78966637     0.04900
C351        C  0.78296240  0.97864051  0.75765316     0.03000
H352        H  0.73248143  0.97906194  0.81410254     0.08100
H353        H  0.80419963  0.98443692  0.74529119     0.07000
N354        N  0.51965293  0.25048238  0.84452537    -0.27400
N355        N  0.51375914  0.22020607  0.85156269    -0.35300
C356        C  0.50809166  0.21766755  0.88270624     0.00900
C357        C  0.51027707  0.24769085  0.89614159     0.07000
C358        C  0.51772348  0.26803991  0.87103942    -0.06100
H359        H  0.50278040  0.19538300  0.89489340     0.07600
H360        H  0.52162598  0.29352213  0.87194339     0.08800
Cu361      Cu  0.51293125  0.18333119  0.81810515     0.44200
Cu362      Cu  0.52865889  0.26443637  0.79821183     0.42000
Cu363      Cu  0.52337796  0.20055836  0.73606415     0.43900
N364        N  0.51091926  0.14832877  0.78275684    -0.34800
N365        N  0.51464640  0.15424355  0.75218393    -0.29000
C366        C  0.51167826  0.12665232  0.73611169    -0.05100
C367        C  0.50587912  0.10205739  0.75777257     0.07100
C368        C  0.50566755  0.11693427  0.78695218     0.00900
H369        H  0.51406605  0.12463348  0.71077603     0.08500
H370        H  0.50216374  0.10552125  0.80984397     0.07600
N371        N  0.52562703  0.24962885  0.72783691    -0.36200
N372        N  0.52791800  0.27190747  0.74956835    -0.28400
C373        C  0.52277268  0.30057855  0.73576454    -0.03700
C374        C  0.51633738  0.29630059  0.70401987     0.04900
C375        C  0.51884920  0.26372454  0.69979810     0.03000
H376        H  0.51997444  0.32237540  0.74870877     0.08100
H377        H  0.51314308  0.25076559  0.67861663     0.07000
O378        O  0.28057001  0.50688587  0.05022687    -0.73100
O379        O  0.28095505  0.51820907  0.95116188    -0.74000
O380        O  0.28576654  0.55894003  0.00523004    -0.62700
O381        O  0.28385582  0.46611110  0.99620827    -0.71100
O382        O  0.23249632  0.46335968  0.99712393    -0.70600
O383        O  0.23455556  0.56366470  0.00291730    -0.61900
O384        O  0.22960173  0.51777351  0.95411128    -0.74400
O385        O  0.22932592  0.51005196  0.04603737    -0.73200
Cu386      Cu  0.28460914  0.51249471  0.00074061     1.04600
Cu387      Cu  0.22969924  0.51369586  0.00003402     1.04300
C388        C  0.25348438  0.50712161  0.06318546     0.93100
C389        C  0.25389484  0.51981250  0.93759726     0.92300
C390        C  0.26186101  0.57650044  0.00510012     0.84400
C391        C  0.25923989  0.44946136  0.99552683     0.90700
N392        N  0.26731267  0.66418952  0.99959117    -0.27400
N393        N  0.29595429  0.65676984  0.00877229    -0.35300
C394        C  0.29717036  0.62491808  0.01353890     0.00900
C395        C  0.26804799  0.61147486  0.00717053     0.07000
C396        C  0.24966331  0.63734421  0.99837994    -0.06100
H397        H  0.31821585  0.61208827  0.01983301     0.07600
H398        H  0.22586222  0.63654818  0.98984483     0.08800
Cu399      Cu  0.33331011  0.69033642  0.01159258     0.44200
Cu400      Cu  0.25601821  0.71032995  0.98504959     0.42000
Cu401      Cu  0.32201339  0.76918924  0.98015506     0.43900
N402        N  0.36853684  0.72636643  0.01173613    -0.34800
N403        N  0.36449775  0.75557322  0.99999788    -0.29000
C404        C  0.39167890  0.77203951  0.00168494    -0.05100
C405        C  0.41419165  0.75228386  0.01527489     0.07100
C406        C  0.39844475  0.72360077  0.02121078     0.00900
H407        H  0.39517711  0.79587940  0.99205058     0.08500
H408        H  0.40858445  0.70164778  0.03036748     0.07600
N409        N  0.27713133  0.77631748  0.96260205    -0.36200
N410        N  0.25355061  0.75604142  0.96530465    -0.28400
C411        C  0.22823582  0.76901125  0.95127107    -0.03700
C412        C  0.23625974  0.79867709  0.93885435     0.04900
C413        C  0.26741667  0.80247244  0.94651237     0.03000
H414        H  0.20588328  0.75721304  0.94946364     0.08100
H415        H  0.28204564  0.82284345  0.94099477     0.07000
O416        O  0.96325278  0.50491899  0.27589088    -0.73100
O417        O  0.06092656  0.50160741  0.27555253    -0.74000
O418        O  0.01321629  0.54946226  0.27806436    -0.62700
O419        O  0.01050755  0.45679605  0.28210553    -0.71100
O420        O  0.00928066  0.45131671  0.23016589    -0.70600
O421        O  0.01194702  0.55206765  0.22572523    -0.61900
O422        O  0.05633057  0.50088938  0.22337566    -0.74400
O423        O  0.96554649  0.50218749  0.22370107    -0.73200
Cu424      Cu  0.01208218  0.50318037  0.27970002     1.04600
Cu425      Cu  0.01085623  0.50154840  0.22384805     1.04300
C426        C  0.94956812  0.50401356  0.24852076     0.93100
C427        C  0.07348091  0.50110399  0.24791303     0.92300
C428        C  0.01247842  0.56604219  0.25277032     0.84400
C429        C  0.00893025  0.43887020  0.25842861     0.90700
N430        N  0.02264624  0.65314045  0.25599914    -0.27400
N431        N  0.01185581  0.64671239  0.28465150    -0.35300
C432        C  0.00517961  0.61531595  0.28631329     0.00900
C433        C  0.01191259  0.60119522  0.25750891     0.07000
C434        C  0.02292218  0.62617197  0.23878740    -0.06100
H435        H  0.99718729  0.60313064  0.30754786     0.07600
H436        H  0.03211392  0.62461139  0.21514718     0.08800
Cu437      Cu  0.00874623  0.68076108  0.32164234     0.44200
Cu438      Cu  0.03828785  0.69833643  0.24342356     0.42000
Cu439      Cu  0.03562027  0.76001255  0.30501127     0.43900
N440        N  0.00790316  0.71831248  0.35531277    -0.34800
N441        N  0.01768883  0.74765584  0.34880434    -0.29000
C442        C  0.01469572  0.76605750  0.37456722    -0.05100
C443        C  0.00255078  0.74749408  0.39894228     0.07100
C444        C  0.99871481  0.71734775  0.38575830     0.00900
H445        H  0.02201308  0.79073213  0.37577852     0.08500
H446        H  0.99050867  0.69598545  0.39786807     0.07600
N447        N  0.04538880  0.76861648  0.25778084    -0.36200
N448        N  0.04611221  0.74662873  0.23578189    -0.28400
C449        C  0.04388503  0.76106935  0.20723174    -0.03700
C450        C  0.04126283  0.79362097  0.21126264     0.04900
C451        C  0.04279998  0.79746935  0.24363203     0.03000
H452        H  0.03890240  0.74851221  0.18561366     0.08100
H453        H  0.03665145  0.81885371  0.25602803     0.07000
N454        N  0.25032360  0.49418405  0.14958188    -0.27400
N455        N  0.22103602  0.50157020  0.14300783    -0.35300
C456        C  0.21866776  0.50770972  0.11169569     0.00900
C457        C  0.24771972  0.50415479  0.09779825     0.07000
C458        C  0.26728575  0.49554124  0.12274648    -0.06100
H459        H  0.19713104  0.51396547  0.09964409     0.07600
H460        H  0.29181500  0.49013013  0.12149570     0.08800
Cu461      Cu  0.18502770  0.50224145  0.17724018     0.44200
Cu462      Cu  0.26460778  0.48299790  0.19535428     0.42000
Cu463      Cu  0.20386967  0.48123788  0.25774012     0.43900
N464        N  0.15182763  0.50041511  0.21432346    -0.34800
N465        N  0.15868190  0.49253590  0.24405764    -0.29000
C466        C  0.13246730  0.49266311  0.26160110    -0.05100
C467        C  0.10761502  0.50085606  0.24193752     0.07100
C468        C  0.12097276  0.50555736  0.21222947     0.00900
H469        H  0.13147572  0.48616462  0.28647484     0.08500
H470        H  0.10880370  0.51152905  0.19035779     0.07600
N471        N  0.25149182  0.47834726  0.26577523    -0.36200
N472        N  0.27303207  0.47962329  0.24364009    -0.28400
C473        C  0.30078442  0.48514372  0.25741829    -0.03700
C474        C  0.29669345  0.48713382  0.28970031     0.04900
C475        C  0.26519199  0.48267895  0.29409600     0.03000
H476        H  0.32163401  0.49139138  0.24455853     0.08100
H477        H  0.25261299  0.48693864  0.31562956     0.07000
O478        O  0.50706904  0.28131195  0.94321235    -0.73100
O479        O  0.49945759  0.28129011  0.04207104    -0.74000
O480        O  0.54846379  0.28323736  0.99652449    -0.62700
O481        O  0.45757187  0.28714063  0.98834518    -0.71100
O482        O  0.45197194  0.23462114  0.99000791    -0.70600
O483        O  0.54939112  0.23043700  0.99786087    -0.61900
O484        O  0.49715359  0.22859506  0.03993703    -0.74400
O485        O  0.50367693  0.22872001  0.94782038    -0.73200
Cu486      Cu  0.50314457  0.28510367  0.99251217     1.04600
Cu487      Cu  0.50044742  0.22875319  0.99389698     1.04300
C488        C  0.50679992  0.25353904  0.93053613     0.93100
C489        C  0.49726119  0.25368809  0.05609136     0.92300
C490        C  0.56383305  0.25753888  0.99830209     0.84400
C491        C  0.43996641  0.26282288  0.98811220     0.90700
N492        N  0.64932737  0.25523675  0.00699289    -0.27400
N493        N  0.64451985  0.28622660  0.00325208    -0.35300
C494        C  0.61373878  0.29086430  0.99940798     0.00900
C495        C  0.59827109  0.26151891  0.00072157     0.07000
C496        C  0.62181331  0.23937245  0.00552149    -0.06100
H497        H  0.60316661  0.31409862  0.99606216     0.07600
H498        H  0.61919584  0.21376558  0.00801803     0.08800
Cu499      Cu  0.68074181  0.32100302  0.00399245     0.44200
Cu500      Cu  0.69402147  0.23791211  0.01351396     0.42000
Cu501      Cu  0.76066509  0.29716984  0.00986372     0.43900
N502        N  0.71879086  0.35362481  0.00570160    -0.34800
N503        N  0.74841849  0.34532631  0.00771076    -0.29000
C504        C  0.76646592  0.37203070  0.00846310    -0.05100
C505        C  0.74719534  0.39860178  0.00698705     0.07100
C506        C  0.71727988  0.38566763  0.00524878     0.00900
H507        H  0.79158396  0.37205226  0.01022962     0.08500
H508        H  0.69570571  0.39886390  0.00384973     0.07600
N509        N  0.76434060  0.24744163  0.01111305    -0.36200
N510        N  0.74094413  0.22684347  0.01335410    -0.28400
C511        C  0.75187555  0.19714003  0.00988295    -0.03700
C512        C  0.78351782  0.19892566  0.00530549     0.04900
C513        C  0.79059736  0.23112125  0.00590768     0.03000
H514        H  0.73735162  0.17617362  0.00742134     0.08100
H515        H  0.81269327  0.24206810  0.00009613     0.07000
O516        O  0.49562163  0.96219803  0.23383395    -0.73100
O517        O  0.49400026  0.05494261  0.22772934    -0.74000
O518        O  0.54381451  0.00863438  0.23164204    -0.62700
O519        O  0.44661766  0.00720804  0.23803564    -0.71100
O520        O  0.45357473  0.01027426  0.28987539    -0.70600
O521        O  0.54456845  0.01306464  0.28375887    -0.61900
O522        O  0.49779388  0.06134170  0.27948656    -0.74400
O523        O  0.50108998  0.96110156  0.28596995    -0.73200
Cu524      Cu  0.49482849  0.00831070  0.23102808     1.04600
Cu525      Cu  0.49926526  0.01155930  0.28667432     1.04300
C526        C  0.49935192  0.94641083  0.25936596     0.93100
C527        C  0.49564735  0.07329266  0.25112485     0.92300
C528        C  0.55909974  0.01065195  0.25804282     0.84400
C529        C  0.43536369  0.00818030  0.26620253     0.90700
N530        N  0.73752984  0.99139168  0.35291656    -0.27400
N531        N  0.71154488  0.00752773  0.35685359    -0.35300
C532        C  0.71200266  0.01906493  0.38637923     0.00900
C533        C  0.73952229  0.00993303  0.40188800     0.07000
C534        C  0.75509502  0.99226736  0.37970137    -0.06100
H535        H  0.69258335  0.03119769  0.39682123     0.07600
H536        H  0.77619529  0.97870270  0.38363213     0.08800
Cu537      Cu  0.67459506  0.00922245  0.32283433     0.44200
Cu538      Cu  0.74479547  0.96594088  0.31216553     0.42000
Cu539      Cu  0.68168054  0.96472947  0.25089473     0.43900
N540        N  0.63934806  0.00678687  0.28708791    -0.34800
N541        N  0.64192759  0.99059966  0.26068184    -0.29000
C542        C  0.61465601  0.99171643  0.24431341    -0.05100
C543        C  0.59360443  0.00947572  0.26115988     0.07100
C544        C  0.61024200  0.01846199  0.28812514     0.00900
H545        H  0.60979140  0.97840238  0.22314321     0.08500
H546        H  0.60103158  0.03084724  0.30817688     0.07600
N547        N  0.72491281  0.94321489  0.24698666    -0.36200
N548        N  0.74735909  0.94419045  0.26867159    -0.28400
C549        C  0.77316142  0.93116985  0.25695665    -0.03700
C550        C  0.76679136  0.92145530  0.22649443     0.04900
C551        C  0.73590766  0.92921344  0.22103492     0.03000
H552        H  0.79530096  0.93008794  0.26934609     0.08100
H553        H  0.72299049  0.92690482  0.19907137     0.07000
N554        N  0.50316896  0.16047236  0.24215551    -0.27400
N555        N  0.49531437  0.15270050  0.21293739    -0.35300
C556        C  0.49034539  0.12095825  0.21272921     0.00900
C557        C  0.49526448  0.10806940  0.24311070     0.01800
C558        C  0.50339147  0.13405672  0.26116873    -0.06100
H559        H  0.48463853  0.10782698  0.19164057     0.07600
H560        H  0.51047642  0.13364491  0.28582140     0.08800
Cu561      Cu  0.49398967  0.18577340  0.17377724     0.44200
Cu562      Cu  0.51684191  0.20630696  0.25274951     0.42000
Cu563      Cu  0.51579780  0.26696352  0.18700357     0.43900
N564        N  0.49463686  0.22215464  0.13759871    -0.34800
N565        N  0.50194914  0.25228487  0.14286338    -0.29000
C566        C  0.50249240  0.26909412  0.11519698    -0.05100
C567        C  0.49523544  0.24860852  0.09095721     0.07100
C568        C  0.49035896  0.21911793  0.10616637     0.00900
H569        H  0.50963080  0.29379779  0.11280385     0.08500
H570        H  0.48550803  0.19666536  0.09487195     0.07600
N571        N  0.53663999  0.27256380  0.23065005    -0.36200
N572        N  0.53667285  0.25119753  0.25413364    -0.28400
C573        C  0.55403537  0.26226355  0.27810893    -0.03700
C574        C  0.56571022  0.29182536  0.26918391     0.04900
C575        C  0.55416409  0.29764298  0.23900405     0.03000
H576        H  0.55855207  0.24918780  0.30000204     0.08100
H577        H  0.55820707  0.31847290  0.22405772     0.07000
O578        O  0.21861694  0.97097658  0.51626882    -0.73100
O579        O  0.22103921  0.06334546  0.50815193    -0.74000
O580        O  0.22478200  0.01291464  0.46266041    -0.62700
O581        O  0.22363417  0.02110541  0.56157059    -0.71100
O582        O  0.27471238  0.01564670  0.55908152    -0.70600
O583        O  0.27600880  0.01659270  0.46699677    -0.61900
O584        O  0.27228503  0.06646077  0.51239102    -0.74400
O585        O  0.26967331  0.96582460  0.51340062    -0.73200
Cu586      Cu  0.22020717  0.01715465  0.51206990     1.04600
Cu587      Cu  0.27503399  0.01609628  0.51301856     1.04300
C588        C  0.24221474  0.95318674  0.51509571     0.93100
C589        C  0.24541853  0.08014844  0.51024937     0.92300
C590        C  0.25195646  0.01363311  0.44983926     0.84400
C591        C  0.25054470  0.01924534  0.57538491     0.90700
N592        N  0.25949181  0.04060900  0.65865753    -0.27400
N593        N  0.28483222  0.02349572  0.65452030    -0.35300
C594        C  0.28363803  0.01171043  0.62517201     0.00900
C595        C  0.25621505  0.02152428  0.61001998     0.07000
C596        C  0.24147695  0.03999623  0.63214847    -0.06100
H597        H  0.30222199  0.99819264  0.61484647     0.07600
H598        H  0.22021368  0.05340312  0.62869572     0.08800
Cu599      Cu  0.32129401  0.01876317  0.68857195     0.44200
Cu600      Cu  0.25215480  0.06312611  0.70102559     0.42000
Cu601      Cu  0.31232914  0.05173893  0.76514947     0.43900
N602        N  0.35641386  0.01759665  0.72429704    -0.34800
N603        N  0.35338402  0.03009163  0.75257534    -0.29000
C604        C  0.38042111  0.02703707  0.76911593    -0.05100
C605        C  0.40175386  0.01194576  0.75024229     0.07100
C606        C  0.38556119  0.00642382  0.72209239     0.00900
H607        H  0.38468463  0.03670030  0.79231827     0.08500
H608        H  0.39492130  0.99634035  0.70084955     0.07600
N609        N  0.26567067  0.06101346  0.77180150    -0.36200
N610        N  0.24462369  0.06582685  0.74911714    -0.28400
C611        C  0.21622472  0.06119902  0.76119186    -0.03700
C612        C  0.21936278  0.05198565  0.79270479     0.04900
C613        C  0.25104558  0.05309579  0.79873909     0.03000
H614        H  0.19537210  0.05980008  0.74673910     0.08100
H615        H  0.26289553  0.04346920  0.81952243     0.07000
O616        O  0.95419293  0.23033882  0.52108775    -0.73100
O617        O  0.04474899  0.23402200  0.51932046    -0.74000
O618        O  0.00142810  0.23756246  0.56980230    -0.62700
O619        O  0.99780693  0.23508147  0.47044881    -0.71100
O620        O  0.99554328  0.28780610  0.47156291    -0.70600
O621        O  0.00007211  0.29010903  0.56376799    -0.61900
O622        O  0.04641500  0.28675259  0.51542105    -0.74400
O623        O  0.94897154  0.28287306  0.51972393    -0.73200
Cu624      Cu  0.99953526  0.23239850  0.52029285     1.04600
Cu625      Cu  0.99761167  0.28874933  0.51761330     1.04300
C626        C  0.93679471  0.25461851  0.52053089     0.93100
C627        C  0.06041233  0.25952254  0.51670544     0.92300
C628        C  0.00183306  0.26568257  0.58180791     0.84400
C629        C  0.99640772  0.26245948  0.45585742     0.90700
N630        N  0.00996392  0.27010956  0.66866250    -0.27400
N631        N  0.00910590  0.30069999  0.66043319    -0.35300
C632        C  0.00598101  0.30290400  0.62875894     0.00900
C633        C  0.00474408  0.27236136  0.61624007     0.07000
C634        C  0.00738618  0.25208360  0.64245813    -0.06100
H635        H  0.00466991  0.32528316  0.61558640     0.07600
H636        H  0.00728614  0.22627008  0.64256441     0.08800
Cu637      Cu  0.01172469  0.33842519  0.69319476     0.44200
Cu638      Cu  0.01312568  0.25629204  0.71594776     0.42000
Cu639      Cu  0.01542188  0.32139534  0.77637430     0.43900
N640        N  0.01350187  0.37392953  0.72833432    -0.34800
N641        N  0.01499445  0.36791696  0.75915342    -0.29000
C642        C  0.01450043  0.39572017  0.77501474    -0.05100
C643        C  0.01263568  0.42062962  0.75301366     0.07100
C644        C  0.01214073  0.40571420  0.72381390     0.00900
H645        H  0.01482409  0.39754167  0.80051627     0.08500
H646        H  0.01032816  0.41730369  0.70075095     0.07600
N647        N  0.00879918  0.27317912  0.78561988    -0.36200
N648        N  0.00846650  0.25024141  0.76449941    -0.28400
C649        C  0.99910279  0.22294966  0.77865538    -0.03700
C650        C  0.99280139  0.22899467  0.80997590     0.04900
C651        C  0.99942756  0.26102731  0.81357262     0.03000
H652        H  0.99426559  0.20113207  0.76622658     0.08100
H653        H  0.99563518  0.27511264  0.83433809     0.07000
N654        N  0.24110603  0.16781451  0.50352494    -0.27400
N655        N  0.21220721  0.16033813  0.51123400    -0.35300
C656        C  0.21064959  0.12856290  0.51583648     0.00900
C657        C  0.23980169  0.11515791  0.51093845     0.07000
C658        C  0.25866992  0.14099041  0.50326492    -0.06100
H659        H  0.18940545  0.11578347  0.52134139     0.07600
H660        H  0.28282242  0.14024940  0.49643895     0.08800
Cu661      Cu  0.17486696  0.19334356  0.51299440     0.44200
Cu662      Cu  0.25301629  0.21433127  0.49112937     0.42000
Cu663      Cu  0.18701280  0.27234432  0.48435206     0.43900
N664        N  0.13972924  0.22889974  0.51207884    -0.34800
N665        N  0.14420124  0.25832151  0.50119350    -0.29000
C666        C  0.11737880  0.27504024  0.50256961    -0.05100
C667        C  0.09460675  0.25508543  0.51484406     0.07100
C668        C  0.10975650  0.22609277  0.52050605     0.00900
H669        H  0.11442640  0.29933067  0.49394060     0.08500
H670        H  0.09928983  0.20409207  0.52908856     0.07600
N671        N  0.23340849  0.28310398  0.47836763    -0.36200
N672        N  0.25689423  0.26293893  0.48160325    -0.28400
C673        C  0.28341411  0.27973804  0.48414640    -0.03700
C674        C  0.27631264  0.31197563  0.48306840     0.04900
C675        C  0.24441573  0.31305727  0.47872591     0.03000
H676        H  0.30555406  0.26923368  0.49078150     0.08100
H677        H  0.22971103  0.33387256  0.47978453     0.07000
N678        N  0.99056016  0.26229158  0.36894520    -0.27400
N679        N  0.99652233  0.29277709  0.37381215    -0.35300
C680        C  0.99989692  0.29659397  0.40521955     0.00900
C681        C  0.99607793  0.26718056  0.42086557     0.07000
C682        C  0.99021238  0.24591421  0.39689583    -0.06100
H683        H  0.00460511  0.31929126  0.41609576     0.07600
H684        H  0.98555099  0.22061882  0.39950361     0.08800
Cu685      Cu  0.99959303  0.32779255  0.33661786     0.44200
Cu686      Cu  0.98411597  0.24589172  0.32377737     0.42000
Cu687      Cu  0.98827685  0.30466121  0.25565100     0.43900
N688        N  0.00163696  0.35995182  0.29689576    -0.34800
N689        N  0.99704222  0.35178423  0.26711270    -0.29000
C690        C  0.99961481  0.37796544  0.24785758    -0.05100
C691        C  0.00620895  0.40411365  0.26641213     0.07100
C692        C  0.00722293  0.39153849  0.29725959     0.00900
H693        H  0.99643592  0.37797684  0.22242635     0.08500
H694        H  0.01127078  0.40473864  0.31867551     0.07600
N695        N  0.98867290  0.25528306  0.25247424    -0.36200
N696        N  0.98771525  0.23477393  0.27672755    -0.28400
C697        C  0.99495636  0.20559109  0.26670412    -0.03700
C698        C  0.00028008  0.20767642  0.23468897     0.04900
C699        C  0.99617347  0.23939172  0.22634985     0.03000
H700        H  0.99874830  0.18499431  0.28210085     0.08100
H701        H  0.00149907  0.25062850  0.20376748     0.07000
N702        N  0.26254061  0.98609759  0.36935663    -0.27400
N703        N  0.28753056  0.00430575  0.37254072    -0.35300
C704        C  0.28555609  0.01897912  0.40054905     0.00900
C705        C  0.25793343  0.00998932  0.41551976     0.07000
C706        C  0.24404696  0.98895078  0.39482924    -0.06100
H707        H  0.30382859  0.03372936  0.41037641     0.07600
H708        H  0.22316873  0.97504676  0.39890389     0.08800
Cu709      Cu  0.32441564  0.00624902  0.33892816     0.44200
Cu710      Cu  0.25538794  0.95848668  0.33009213     0.42000
Cu711      Cu  0.30956719  0.96998015  0.26398149     0.43900
N712        N  0.35792448  0.00392878  0.30194652    -0.34800
N713        N  0.35212891  0.99062572  0.27434804    -0.29000
C714        C  0.37790282  0.99177602  0.25628508    -0.05100
C715        C  0.40151674  0.00632529  0.27326074     0.07100
C716        C  0.38791319  0.01358160  0.30211930     0.00900
H717        H  0.37974068  0.98120059  0.23324114     0.08500
H718        H  0.39948993  0.02407288  0.32228390     0.07600
N719        N  0.26271739  0.95958790  0.25925465    -0.36200
N720        N  0.24377357  0.95363446  0.28308601    -0.28400
C721        C  0.21434606  0.95770393  0.27309694    -0.03700
C722        C  0.21454454  0.96802908  0.24176701     0.04900
C723        C  0.24569148  0.96790864  0.23360075     0.03000
H724        H  0.19495208  0.95839935  0.28910163     0.08100
H725        H  0.25565230  0.97850196  0.21245934     0.07000
N726        N  0.26164959  0.36131967  0.99912231    -0.27400
N727        N  0.29052906  0.36823792  0.99073532    -0.35300
C728        C  0.29274456  0.40015203  0.98688087     0.00900
C729        C  0.26412574  0.41426924  0.99305888     0.07000
C730        C  0.24491771  0.38864622  0.00075566    -0.06100
H731        H  0.31415305  0.41253748  0.98118200     0.07600
H732        H  0.22109521  0.38985031  0.00859183     0.08800
Cu733      Cu  0.32723525  0.33416449  0.98723761     0.44200
Cu734      Cu  0.24828660  0.31475216  0.01097824     0.42000
Cu735      Cu  0.30969323  0.25267344  0.00077894     0.43900
N736        N  0.36137855  0.29720230  0.98599524    -0.34800
N737        N  0.35448435  0.26668157  0.99037928    -0.29000
C738        C  0.38080557  0.24902451  0.99060360    -0.05100
C739        C  0.40588837  0.26936795  0.98613311     0.07100
C740        C  0.39251726  0.29967230  0.98325027     0.00900
H741        H  0.38169266  0.22358547  0.99539450     0.08500
H742        H  0.40484175  0.32211666  0.98067299     0.07600
N743        N  0.26693124  0.24536078  0.02136073    -0.36200
N744        N  0.24491004  0.26691283  0.02522015    -0.28400
C745        C  0.22194541  0.25350324  0.04243569    -0.03700
C746        C  0.23027667  0.22235987  0.05006855     0.04900
C747        C  0.25877765  0.21807762  0.03618496     0.03000
H748        H  0.20153039  0.26601188  0.05021778     0.08100
H749        H  0.27311802  0.19692415  0.03747613     0.07000
C750        C  0.40135594  0.39910701  0.59110252    -0.02600
C751        C  0.63912881  0.40965547  0.39594568    -0.02600
C752        C  0.58588934  0.61464205  0.64416430    -0.02600
C753        C  0.39334186  0.61650875  0.38862784    -0.02600
C754        C  0.51917160  0.51637627  0.49442327    -0.02600
C755        C  0.41177492  0.59787146  0.41468359    -0.05400
C756        C  0.41083707  0.60506498  0.44728367    -0.05300
C757        C  0.43107201  0.59030178  0.46905779    -0.23400
C758        C  0.45407151  0.56961013  0.45869646     0.18800
C759        C  0.45618392  0.56315747  0.42626167     0.16000
C760        C  0.43444805  0.57600979  0.40490895    -0.18500
C761        C  0.48094933  0.54524426  0.41533731    -0.20300
C762        C  0.50273404  0.53253577  0.43657466    -0.12900
C763        C  0.49884405  0.53495802  0.46968469     0.03800
C764        C  0.47520894  0.55551481  0.48014779    -0.25000
H765        H  0.39560462  0.62292714  0.45643432     0.08900
H766        H  0.42956024  0.59613430  0.49386700     0.12500
H767        H  0.43633584  0.57059449  0.38001477     0.12400
H768        H  0.48387399  0.54158204  0.39021537     0.12200
H769        H  0.52218636  0.52069691  0.42625221     0.12700
H770        H  0.47251680  0.55946651  0.50524522     0.14700
C771        C  0.56841649  0.59625677  0.61812302    -0.05400
C772        C  0.54725506  0.57213254  0.62758065    -0.05300
C773        C  0.53188307  0.55355597  0.60547449    -0.23400
C774        C  0.53750455  0.55826935  0.57322886     0.18800
C775        C  0.55824434  0.58231183  0.56301814     0.16000
C776        C  0.57412094  0.60059598  0.58540448    -0.18500
C777        C  0.56302702  0.58737068  0.53055020    -0.20300
C778        C  0.54880446  0.56739620  0.50859917    -0.12900
C779        C  0.53079566  0.54095227  0.51873453     0.03800
C780        C  0.52351297  0.53834707  0.55122341    -0.25000
H781        H  0.54273835  0.56763610  0.65244269     0.08900
H782        H  0.51601993  0.53508847  0.61367901     0.12500
H783        H  0.59148613  0.61722556  0.57689787     0.12400
H784        H  0.57822266  0.60633562  0.52216539     0.12200
H785        H  0.55349755  0.57122576  0.48367727     0.12700
H786        H  0.50749195  0.52048578  0.56011453     0.14700
C787        C  0.61164248  0.42605997  0.41188904    -0.05400
C788        C  0.58012780  0.41957892  0.40446198    -0.05300
C789        C  0.55634795  0.43518191  0.41992238    -0.23400
C790        C  0.56347112  0.45830012  0.44226942     0.18800
C791        C  0.59470711  0.46612844  0.44883146     0.16000
C792        C  0.61840520  0.45037951  0.43345593    -0.18500
C793        C  0.60186943  0.48925304  0.47105523    -0.20300
C794        C  0.57817916  0.50527267  0.48611778    -0.12900
C795        C  0.54656341  0.49925754  0.47853862     0.03800
C796        C  0.53980606  0.47415440  0.45770590    -0.25000
H797        H  0.57341785  0.40301379  0.38635793     0.08900
H798        H  0.53238137  0.42949393  0.41405225     0.12500
H799        H  0.64243169  0.45648484  0.43869562     0.12400
H800        H  0.62585063  0.49478027  0.47703832     0.12200
H801        H  0.58531533  0.52164306  0.50414838     0.12700
H802        H  0.51577963  0.46777100  0.45278407     0.14700
C803        C  0.42057441  0.42367200  0.57195708    -0.05400
C804        C  0.40443028  0.44759403  0.55440990    -0.05300
C805        C  0.41986225  0.46802057  0.53354101    -0.23400
C806        C  0.45214174  0.46632875  0.53091411     0.18800
C807        C  0.46892680  0.44369030  0.54925962     0.16000
C808        C  0.45307802  0.42160689  0.56838822    -0.18500
C809        C  0.50136692  0.44369275  0.54846720    -0.20300
C810        C  0.51697769  0.46686762  0.53070790    -0.12900
C811        C  0.50060706  0.48946381  0.51152033     0.03800
C812        C  0.46784504  0.48756541  0.51080196    -0.25000
H813        H  0.37945087  0.44985095  0.55627069     0.08900
H814        H  0.40658892  0.48558081  0.51996544     0.12500
H815        H  0.46642617  0.40278738  0.57976140     0.12400
H816        H  0.51470836  0.42670995  0.56269177     0.12200
H817        H  0.54210844  0.46754107  0.53243498     0.12700
H818        H  0.45392685  0.50304785  0.49582066     0.14700
C819        C  0.29591026  0.33728322  0.49671669    -0.05400
C820        C  0.28218582  0.36181968  0.51393548    -0.05300
C821        C  0.30019094  0.38046493  0.53403405    -0.23400
C822        C  0.33212510  0.37483374  0.53718709     0.18800
C823        C  0.34655790  0.35251708  0.51759430     0.16000
C824        C  0.32838113  0.33399536  0.49727162    -0.18500
C825        C  0.37872615  0.34818060  0.51966408    -0.20300
C826        C  0.39601611  0.36406683  0.54258828    -0.12900
C827        C  0.38134349  0.38324047  0.56513872     0.03800
C828        C  0.34952720  0.39023451  0.56049320    -0.25000
H829        H  0.25726646  0.36518077  0.51387464     0.08900
H830        H  0.28885968  0.39801140  0.54841079     0.12500
H831        H  0.33926108  0.31568164  0.48346280     0.12400
H832        H  0.39040803  0.33200125  0.50407487     0.12200
H833        H  0.42090780  0.36025107  0.54376927     0.12700
H834        H  0.33802512  0.40762532  0.57481635     0.14700
C835        C  0.62824727  0.38153686  0.37547053    -0.05400
C836        C  0.61197723  0.35597151  0.39014898    -0.05300
C837        C  0.59857454  0.33188378  0.37237431    -0.23400
C838        C  0.60117033  0.33266921  0.33947227     0.18800
C839        C  0.61954698  0.35642047  0.32454747     0.16000
C840        C  0.63411400  0.37976017  0.34274549    -0.18500
C841        C  0.62182994  0.35734660  0.29148788    -0.20300
C842        C  0.60464805  0.33596150  0.27335381    -0.12900
C843        C  0.58564280  0.31288171  0.28809908     0.03800
C844        C  0.58475248  0.31076053  0.32121153    -0.25000
H845        H  0.60813073  0.35563216  0.41542031     0.08900
H846        H  0.58503854  0.31345905  0.38425488     0.12500
H847        H  0.64900744  0.39691400  0.33088845     0.12400
H848        H  0.63593834  0.37532030  0.27963367     0.12200
H849        H  0.60605858  0.33764746  0.24781368     0.12700
H850        H  0.57003833  0.29314406  0.33280987     0.14700
C851        C  0.31661486  0.50553794  0.31098291    -0.05400
C852        C  0.33138899  0.49103171  0.33720204    -0.05300
C853        C  0.34883410  0.50949448  0.35823995    -0.23400
C854        C  0.35120308  0.54270332  0.35344450     0.18800
C855        C  0.33584282  0.55727641  0.32722437     0.16000
C856        C  0.31894467  0.53858120  0.30602476    -0.18500
C857        C  0.33723373  0.59035748  0.32279451    -0.20300
C858        C  0.35467599  0.60885767  0.34346782    -0.12900
C859        C  0.37197178  0.59476601  0.36868157     0.03800
C860        C  0.36873716  0.56151739  0.37426694    -0.25000
H861        H  0.32934699  0.46552819  0.34137557     0.08900
H862        H  0.36031989  0.49787202  0.37828022     0.12500
H863        H  0.30697491  0.54975127  0.28597957     0.12400
H864        H  0.32511310  0.60193273  0.30311025     0.12200
H865        H  0.35587175  0.63436470  0.33896164     0.12700
H866        H  0.37986367  0.54992264  0.39444591     0.14700
C867        C  0.42136186  0.37445896  0.60992949    -0.05400
C868        C  0.41623703  0.34118107  0.60811636    -0.05300
C869        C  0.43519421  0.31958031  0.62458753    -0.23400
C870        C  0.45894982  0.33050765  0.64443937     0.18800
C871        C  0.46312769  0.36357187  0.64855028     0.16000
C872        C  0.44389258  0.38519969  0.63194997    -0.18500
C873        C  0.48632948  0.37436946  0.66937882    -0.20300
C874        C  0.50464606  0.35246068  0.68654933    -0.12900
C875        C  0.50026422  0.31949393  0.68284903     0.03800
C876        C  0.47772348  0.30875025  0.66123795    -0.25000
H877        H  0.39725239  0.33134347  0.59446112     0.08900
H878        H  0.43093357  0.29423767  0.62213197     0.12500
H879        H  0.44702601  0.41058629  0.63534579     0.12400
H880        H  0.48993551  0.39967714  0.67279392     0.12200
H881        H  0.52188533  0.36126141  0.70312627     0.12700
H882        H  0.47357676  0.28343005  0.65859636     0.14700
C883        C  0.70209263  0.32400486  0.51101168    -0.05400
C884        C  0.67443539  0.33722448  0.52175302    -0.05300
C885        C  0.65827695  0.35931770  0.50271058    -0.23400
C886        C  0.66929957  0.36763212  0.47245398     0.18800
C887        C  0.69724328  0.35435940  0.46168008     0.16000
C888        C  0.71373666  0.33299963  0.48126736    -0.18500
C889        C  0.70736167  0.36129572  0.43093966    -0.20300
C890        C  0.68927521  0.38027634  0.41052493    -0.12900
C891        C  0.66132380  0.39404744  0.42073024     0.03800
C892        C  0.65185933  0.38755006  0.45224207    -0.25000
H893        H  0.66530376  0.33025608  0.54466609     0.08900
H894        H  0.63674239  0.36917741  0.51123598     0.12500
H895        H  0.73496080  0.32225759  0.47291001     0.12400
H896        H  0.72855439  0.35087719  0.42220801     0.12200
H897        H  0.69660405  0.38350300  0.38622889     0.12700
H898        H  0.62965399  0.39559441  0.46068614     0.14700
C899        C  0.30207810  0.43900415  0.70050757    -0.05400
C900        C  0.29560108  0.40808286  0.69019558    -0.05300
C901        C  0.31476599  0.39380680  0.66816678    -0.23400
C902        C  0.33992788  0.41081105  0.65530382     0.18800
C903        C  0.34617867  0.44221385  0.66515924     0.16000
C904        C  0.32767464  0.45584250  0.68836412    -0.18500
C905        C  0.37050554  0.45958380  0.65130463    -0.20300
C906        C  0.38796673  0.44633770  0.62724392    -0.12900
C907        C  0.38171340  0.41515076  0.61663904     0.03800
C908        C  0.35848942  0.39714056  0.63226168    -0.25000
H909        H  0.27583245  0.39492529  0.69941406     0.08900
H910        H  0.30950644  0.36978942  0.66066539     0.12500
H911        H  0.33237584  0.47992958  0.69607753     0.12400
H912        H  0.37584662  0.48357202  0.65884598     0.12200
H913        H  0.40680611  0.46049479  0.61759367     0.12700
H914        H  0.35414660  0.37269680  0.62547694     0.14700
C915        C  0.29302349  0.69981268  0.46910753    -0.05400
C916        C  0.28877511  0.66708716  0.47561206    -0.05300
C917        C  0.30669954  0.64446302  0.46032299    -0.23400
C918        C  0.32898931  0.65427820  0.43817959     0.18800
C919        C  0.33307680  0.68710783  0.43130553     0.16000
C920        C  0.31522034  0.70963100  0.44685001    -0.18500
C921        C  0.35473341  0.69694755  0.40872539    -0.20300
C922        C  0.37337913  0.67462828  0.39416272    -0.12900
C923        C  0.37153789  0.64182246  0.40253683     0.03800
C924        C  0.34758223  0.63190058  0.42316368    -0.25000
H925        H  0.27176537  0.65899492  0.49271127     0.08900
H926        H  0.30323694  0.61936284  0.46591102     0.12500
H927        H  0.31825751  0.73475700  0.44111798     0.12400
H928        H  0.35735632  0.72198770  0.40235908     0.12200
H929        H  0.38899674  0.68356573  0.37621559     0.12700
H930        H  0.34455848  0.60669692  0.42864699     0.14700
C931        C  0.60426556  0.58836764  0.66258612    -0.05400
C932        C  0.59797772  0.57938755  0.69429271    -0.05300
C933        C  0.61750642  0.55838170  0.71093256    -0.23400
C934        C  0.64345784  0.54552657  0.69621476     0.18800
C935        C  0.64824920  0.55152352  0.66368555     0.16000
C936        C  0.62780301  0.57162459  0.64681663    -0.18500
C937        C  0.67446124  0.53891049  0.64904924    -0.20300
C938        C  0.69672210  0.52214864  0.66700999    -0.12900
C939        C  0.69273000  0.51717430  0.69969264     0.03800
C940        C  0.66536537  0.52794629  0.71385821    -0.25000
H941        H  0.57824161  0.58864325  0.70669256     0.08900
H942        H  0.61289124  0.55306916  0.73564764     0.12500
H943        H  0.63187790  0.57665097  0.62192907     0.12400
H944        H  0.67842715  0.54320058  0.62404248     0.12200
H945        H  0.71738301  0.51372799  0.65544828     0.12700
H946        H  0.66185286  0.52456984  0.73902150     0.14700
C947        C  0.65406020  0.43700859  0.37620175    -0.05400
C948        C  0.63603033  0.45192582  0.35194577    -0.05300
C949        C  0.64809912  0.47653634  0.33319630    -0.23400
C950        C  0.67827935  0.48762807  0.33871024     0.18800
C951        C  0.69582015  0.47502279  0.36445861     0.16000
C952        C  0.68351829  0.45022360  0.38330996    -0.18500
C953        C  0.72575833  0.48687985  0.37038360    -0.20300
C954        C  0.73912948  0.50897443  0.34940417    -0.12900
C955        C  0.72268286  0.51973454  0.32221604     0.03800
C956        C  0.69156587  0.51027475  0.31814219    -0.25000
H957        H  0.61260119  0.44371850  0.34694814     0.08900
H958        H  0.63402660  0.48641525  0.31397176     0.12500
H959        H  0.69703731  0.44161472  0.40341809     0.12400
H960        H  0.73938611  0.47797125  0.39038334     0.12200
H961        H  0.76293180  0.51611358  0.35379962     0.12700
H962        H  0.67812351  0.51911000  0.29800558     0.14700
C963        C  0.41919362  0.63199102  0.36803496    -0.05400
C964        C  0.42483572  0.62299746  0.33650978    -0.05300
C965        C  0.44904936  0.63663553  0.31929225    -0.23400
C966        C  0.46866676  0.65916658  0.33313497     0.18800
C967        C  0.46474007  0.66715159  0.36508106     0.16000
C968        C  0.44054092  0.65318000  0.38236953    -0.18500
C969        C  0.48453447  0.68969576  0.37891096    -0.20300
C970        C  0.50668188  0.70570771  0.36054527    -0.12900
C971        C  0.50960101  0.69908255  0.32823070     0.03800
C972        C  0.49139616  0.67468292  0.31510094    -0.25000
H973        H  0.41127206  0.60485586  0.32489490     0.08900
H974        H  0.45228322  0.62968085  0.29498576     0.12500
H975        H  0.43769442  0.65930645  0.40697606     0.12400
H976        H  0.48204418  0.69588020  0.40352805     0.12200
H977        H  0.52068282  0.72416081  0.37131946     0.12700
H978        H  0.49313565  0.66922588  0.29026415     0.14700
C979        C  0.47436818  0.69019118  0.71734816    -0.05400
C980        C  0.46155103  0.67619162  0.69036363    -0.05300
C981        C  0.48026709  0.65778140  0.67099729    -0.23400
C982        C  0.51205834  0.65389055  0.67818962     0.18800
C983        C  0.52490544  0.66830153  0.70527211     0.16000
C984        C  0.50592860  0.68597760  0.72483042    -0.18500
C985        C  0.55671639  0.66579213  0.71185930    -0.20300
C986        C  0.57576128  0.64880468  0.69192586    -0.12900
C987        C  0.56338021  0.63277222  0.66553846     0.03800
C988        C  0.53130686  0.63647200  0.65842332    -0.25000
H989        H  0.43726093  0.67970968  0.68423574     0.08900
H990        H  0.47004902  0.64705018  0.65018920     0.12500
H991        H  0.51591626  0.69749815  0.74536878     0.12400
H992        H  0.56696566  0.67730069  0.73223409     0.12200
H993        H  0.60042042  0.64767353  0.69735259     0.12700
H994        H  0.52112754  0.62683062  0.63714373     0.14700
C995        C  0.69871213  0.70658489  0.58965193    -0.05400
C996        C  0.71108651  0.68425415  0.61151637    -0.05300
C997        C  0.69150348  0.66365753  0.62835688    -0.23400
C998        C  0.65927744  0.66465494  0.62310433     0.18800
C999        C  0.64652564  0.68748413  0.60174961     0.16000
C1000       C  0.66627989  0.70856132  0.58539831    -0.18500
C1001       C  0.61429593  0.68850155  0.59679146    -0.20300
C1002       C  0.59511666  0.66576240  0.61134063    -0.12900
C1003       C  0.60772419  0.64096296  0.63061431     0.03800
C1004       C  0.63980096  0.64253538  0.63824592    -0.25000
H1005       H  0.73593545  0.68264987  0.61559801     0.08900
H1006       H  0.70163202  0.64637536  0.64484373     0.12500
H1007       H  0.65642352  0.72564177  0.56855004     0.12400
H1008       H  0.60398878  0.70635216  0.58105133     0.12200
H1009       H  0.57034852  0.66659864  0.60644216     0.12700
H1010       H  0.65016667  0.62659041  0.65573161     0.14700
C1011       C  0.08326016  0.89674892  0.84165767    -0.05400
C1012       C  0.09495730  0.87800752  0.81711488    -0.05300
C1013       C  0.07527310  0.85907611  0.79889175    -0.23400
C1014       C  0.04342236  0.85775816  0.80520591     0.18800
C1015       C  0.03121082  0.87565807  0.83007099     0.16000
C1016       C  0.05111108  0.89447655  0.84833244    -0.18500
C1017       C  0.99932830  0.87378982  0.83685573    -0.20300
C1018       C  0.97987360  0.85363151  0.81960692    -0.12900
C1019       C  0.99210651  0.83550580  0.79531443     0.03800
C1020       C  0.02371030  0.83794301  0.78781326    -0.25000
H1021       H  0.11959496  0.87818457  0.81204183     0.08900
H1022       H  0.08504831  0.84512572  0.78014331     0.12500
H1023       H  0.04124597  0.90622821  0.86837163     0.12400
H1024       H  0.98958553  0.88746477  0.85582149     0.12200
H1025       H  0.95546807  0.85179071  0.82548019     0.12700
H1026       H  0.03302880  0.82361276  0.76906515     0.14700
C1027       C  0.12768040  0.89070749  0.87820734    -0.05400
C1028       C  0.11439779  0.86710836  0.89830301    -0.05300
C1029       C  0.13275892  0.84397110  0.91359852    -0.23400
C1030       C  0.16492164  0.84346096  0.90890646     0.18800
C1031       C  0.17850572  0.86583086  0.88777214     0.16000
C1032       C  0.15986191  0.88858506  0.87203128    -0.18500
C1033       C  0.21069171  0.86538436  0.88294971    -0.20300
C1034       C  0.22937188  0.84348546  0.89954573    -0.12900
C1035       C  0.21616566  0.82128182  0.92085576     0.03800
C1036       C  0.18377770  0.82110269  0.92509923    -0.25000
H1037       H  0.08962494  0.86709888  0.90266553     0.08900
H1038       H  0.12182297  0.82671865  0.92938814     0.12500
H1039       H  0.17084306  0.90435390  0.85494620     0.12400
H1040       H  0.22149547  0.88229301  0.86670046     0.12200
H1041       H  0.25418583  0.84382111  0.89550216     0.12700
H1042       H  0.17333219  0.80417468  0.94157297     0.14700
C1043       C  0.12491704  0.94115886  0.84271663    -0.05400
C1044       C  0.11854960  0.94857555  0.81052947    -0.05300
C1045       C  0.13456356  0.97306313  0.79483678    -0.23400
C1046       C  0.15680000  0.99120679  0.81098372     0.18800
C1047       C  0.16270604  0.98501106  0.84338409     0.16000
C1048       C  0.14674657  0.96036347  0.85893140    -0.18500
C1049       C  0.18478354  0.00331473  0.85965654    -0.20300
C1050       C  0.20196356  0.02663377  0.84349422    -0.12900
C1051       C  0.19713768  0.03214564  0.81091343     0.03800
C1052       C  0.17373889  0.01495722  0.79503648    -0.25000
H1053       H  0.10063603  0.93638337  0.79732557     0.08900
H1054       H  0.12939164  0.97794012  0.77005036     0.12500
H1055       H  0.15127577  0.95588387  0.88392486     0.12400
H1056       H  0.18938191  0.99898738  0.88464188     0.12200
H1057       H  0.21972230  0.03967475  0.85626913     0.12700
H1058       H  0.16980345  0.01854437  0.76988101     0.14700
C1059       C  0.04099790  0.98891805  0.98117458    -0.05400
C1060       C  0.06549370  0.96933614  0.99285598    -0.05300
C1061       C  0.08396355  0.95218583  0.97239961    -0.23400
C1062       C  0.07880103  0.95461998  0.93972790     0.18800
C1063       C  0.05662325  0.97648066  0.92756588     0.16000
C1064       C  0.03874592  0.99426529  0.94818539    -0.18500
C1065       C  0.05207333  0.97973888  0.89490573    -0.20300
C1066       C  0.06819770  0.96030717  0.87454919    -0.12900
C1067       C  0.08908042  0.93675035  0.88623516     0.03800
C1068       C  0.09525867  0.93535508  0.91911212    -0.25000
H1069       H  0.06898113  0.96581845  0.01811274     0.08900
H1070       H  0.10145298  0.93614796  0.98220554     0.12500
H1071       H  0.02274310  0.01151418  0.93802940     0.12400
H1072       H  0.03552669  0.99680564  0.88509711     0.12200
H1073       H  0.06386844  0.96309018  0.84934492     0.12700
H1074       H  0.11289687  0.91969132  0.92902653     0.14700
C1075       C  0.81767388  0.81597312  0.00582035    -0.05400
C1076       C  0.80926908  0.84824771  0.00838737    -0.05300
C1077       C  0.82763299  0.86916350  0.02600980    -0.23400
C1078       C  0.85444549  0.85800758  0.04171041     0.18800
C1079       C  0.86427783  0.82635205  0.03722648     0.16000
C1080       C  0.84629205  0.80579199  0.01876317    -0.18500
C1081       C  0.89102516  0.81513106  0.05276053    -0.20300
C1082       C  0.90609794  0.83392010  0.07501047    -0.12900
C1083       C  0.89451851  0.86436650  0.08264401     0.03800
C1084       C  0.87043611  0.87723001  0.06333119    -0.25000
H1085       H  0.78782280  0.85711342  0.99793319     0.08900
H1086       H  0.81993740  0.89352994  0.02878006     0.12500
H1087       H  0.85357701  0.78124502  0.01674247     0.12400
H1088       H  0.89964002  0.79132016  0.04862635     0.12200
H1089       H  0.92675187  0.82411737  0.08620076     0.12700
H1090       H  0.86250662  0.90135611  0.06720031     0.14700
C1091       C  0.78934719  0.91028068  0.20316437    -0.05400
C1092       C  0.77978331  0.89038061  0.17854657    -0.05300
C1093       C  0.80093331  0.88102117  0.15568396    -0.23400
C1094       C  0.83179058  0.89204436  0.15672119     0.18800
C1095       C  0.84156937  0.91197030  0.18144890     0.16000
C1096       C  0.82042348  0.92066332  0.20469603    -0.18500
C1097       C  0.87233605  0.92285917  0.18257083    -0.20300
C1098       C  0.89317498  0.91443185  0.15914637    -0.12900
C1099       C  0.88381167  0.89536418  0.13350094     0.03800
C1100       C  0.85294498  0.88337629  0.13345154    -0.25000
H1101       H  0.75596441  0.88200053  0.17705702     0.08900
H1102       H  0.79304126  0.86558262  0.13693360     0.12500
H1103       H  0.82796742  0.93631579  0.22341221     0.12400
H1104       H  0.88035883  0.93781801  0.20164815     0.12200
H1105       H  0.91699385  0.92274047  0.16106106     0.12700
H1106       H  0.84515015  0.86639107  0.11619045     0.14700
C1107       C  0.93166700  0.86463820  0.13031644    -0.05400
C1108       C  0.92044977  0.83669071  0.14563896    -0.05300
C1109       C  0.94010941  0.81705707  0.16353390    -0.23400
C1110       C  0.97133936  0.82537294  0.16761363     0.18800
C1111       C  0.98282088  0.85422155  0.15438355     0.16000
C1112       C  0.96292671  0.87380991  0.13611455    -0.18500
C1113       C  0.01400058  0.86298359  0.15984679    -0.20300
C1114       C  0.03354875  0.84313311  0.17814157    -0.12900
C1115       C  0.02219196  0.81418396  0.19053355     0.03800
C1116       C  0.99112906  0.80546760  0.18527714    -0.25000
H1117       H  0.89636474  0.82952843  0.14280282     0.08900
H1118       H  0.93085932  0.79530824  0.17414221     0.12500
H1119       H  0.97201237  0.89619270  0.12695636     0.12400
H1120       H  0.02316278  0.88518230  0.15015103     0.12200
H1121       H  0.05740107  0.85028481  0.18262187     0.12700
H1122       H  0.98221771  0.78341861  0.19565450     0.14700
C1123       C  0.92518104  0.91263738  0.09242982    -0.05400
C1124       C  0.91802989  0.94520739  0.09649857    -0.05300
C1125       C  0.93516535  0.96922312  0.08100601    -0.23400
C1126       C  0.95868625  0.96128839  0.05989174     0.18800
C1127       C  0.96438719  0.92893958  0.05389231     0.16000
C1128       C  0.94810916  0.90514118  0.07023460    -0.18500
C1129       C  0.98597880  0.92063644  0.03121693    -0.20300
C1130       C  0.00255153  0.94414458  0.01504316    -0.12900
C1131       C  0.99954839  0.97683694  0.02242822     0.03800
C1132       C  0.97633655  0.98499618  0.04434730    -0.25000
H1133       H  0.89929686  0.95258477  0.11142739     0.08900
H1134       H  0.92974695  0.99399066  0.08524900     0.12500
H1135       H  0.95353383  0.88036963  0.06594314     0.12400
H1136       H  0.98965206  0.89584717  0.02546610     0.12200
H1137       H  0.01719372  0.93592156  0.99639106     0.12700
H1138       H  0.97218356  0.00989300  0.04929448     0.14700
C1139       C  0.79711252  0.99837226  0.81285501    -0.05400
C1140       C  0.79183795  0.99422622  0.84542232    -0.05300
C1141       C  0.80844175  0.01223236  0.86734490    -0.23400
C1142       C  0.83039569  0.03477015  0.85694534     0.18800
C1143       C  0.83565966  0.03918892  0.82425928     0.16000
C1144       C  0.81919681  0.02085023  0.80245037    -0.18500
C1145       C  0.85679135  0.06238421  0.81381657    -0.20300
C1146       C  0.87354917  0.08028236  0.83559038    -0.12900
C1147       C  0.87038595  0.07463316  0.86851962     0.03800
C1148       C  0.84728486  0.05281614  0.87869393    -0.25000
H1149       H  0.77472563  0.97717485  0.85391740     0.08900
H1150       H  0.80402456  0.00864090  0.89236289     0.12500
H1151       H  0.82288578  0.02496070  0.77738159     0.12400
H1152       H  0.86025907  0.06684117  0.78874510     0.12200
H1153       H  0.88852257  0.09873994  0.82609988     0.12700
H1154       H  0.84332473  0.04919521  0.90381529     0.14700
C1155       C  0.86481041  0.11209252  0.91173142    -0.05400
C1156       C  0.84631828  0.13412807  0.89416252    -0.05300
C1157       C  0.82602163  0.15458593  0.90904166    -0.23400
C1158       C  0.82314552  0.15324621  0.94190029     0.18800
C1159       C  0.83936392  0.12971755  0.95985079     0.16000
C1160       C  0.85951312  0.10880932  0.94461927    -0.18500
C1161       C  0.83575522  0.12816575  0.99286491    -0.20300
C1162       C  0.81717577  0.15051085  0.00791714    -0.12900
C1163       C  0.80211164  0.17451818  0.99009191     0.03800
C1164       C  0.80466650  0.17545992  0.95712469    -0.25000
H1165       H  0.84885267  0.13656955  0.86875570     0.08900
H1166       H  0.81323546  0.17206962  0.89488908     0.12500
H1167       H  0.87126012  0.09066543  0.95873695     0.12400
H1168       H  0.84777615  0.11015032  0.00704905     0.12200
H1169       H  0.81497431  0.14943524  0.03342438     0.12700
H1170       H  0.79255203  0.19383401  0.94342912     0.14700
C1171       C  0.91421248  0.11508686  0.87865104    -0.05400
C1172       C  0.93769288  0.10190291  0.85980778    -0.05300
C1173       C  0.95897664  0.12140312  0.84384292    -0.23400
C1174       C  0.95794011  0.15453730  0.84706464     0.18800
C1175       C  0.93663956  0.16792039  0.86814977     0.16000
C1176       C  0.91564134  0.14819775  0.88434708    -0.18500
C1177       C  0.93600764  0.20101967  0.87206384    -0.20300
C1178       C  0.95531924  0.22084164  0.85406922    -0.12900
C1179       C  0.97561835  0.20785564  0.83195983     0.03800
C1180       C  0.97737104  0.17458278  0.82912184    -0.25000
H1181       H  0.93855819  0.07639120  0.85631414     0.08900
H1182       H  0.97572332  0.11061530  0.82839594     0.12500
H1183       H  0.90044417  0.15917101  0.90111833     0.12400
H1184       H  0.91985571  0.21165905  0.88825421     0.12200
H1185       H  0.95331866  0.24640044  0.85653838     0.12700
H1186       H  0.99326944  0.16435788  0.81240947     0.14700
C1187       C  0.90835465  0.06965793  0.91551600    -0.05400
C1188       C  0.91073053  0.03652123  0.90997810    -0.05300
C1189       C  0.93080826  0.01721780  0.92794081    -0.23400
C1190       C  0.95007613  0.03053190  0.95101685     0.18800
C1191       C  0.94835716  0.06343550  0.95685417     0.16000
C1192       C  0.92752691  0.08260193  0.93941792    -0.18500
C1193       C  0.96798857  0.07683106  0.97958701    -0.20300
C1194       C  0.99000692  0.05802672  0.99555406    -0.12900
C1195       C  0.99346121  0.02528047  0.98870121     0.03800
C1196       C  0.97191750  0.01164045  0.96739914    -0.25000
H1197       H  0.89839008  0.02513120  0.89091632     0.08900
H1198       H  0.93218592  0.99202404  0.92282785     0.12500
H1199       H  0.92689895  0.10803341  0.94361737     0.12400
H1200       H  0.96652973  0.10198281  0.98485359     0.12200
H1201       H  0.00396662  0.06963808  0.01333883     0.12700
H1202       H  0.97319545  0.98635981  0.96259071     0.14700
C1203       C  0.21382726  0.19908779  0.07050066    -0.05400
C1204       C  0.23085521  0.17681470  0.08889301    -0.05300
C1205       C  0.21562494  0.15376691  0.10730263    -0.23400
C1206       C  0.18308748  0.15210453  0.10701003     0.18800
C1207       C  0.16576501  0.17453358  0.08876610     0.16000
C1208       C  0.18122307  0.19827436  0.07103994    -0.18500
C1209       C  0.13331532  0.17255326  0.08822102    -0.20300
C1210       C  0.11824122  0.14789365  0.10461404    -0.12900
C1211       C  0.13511737  0.12437124  0.12200711     0.03800
C1212       C  0.16773430  0.12802297  0.12427764    -0.25000
H1213       H  0.25603589  0.17728464  0.08915488     0.08900
H1214       H  0.22931066  0.13681286  0.12120355     0.12500
H1215       H  0.16796121  0.21531797  0.05679619     0.12400
H1216       H  0.11957911  0.18973140  0.07466076     0.12200
H1217       H  0.09311050  0.14673754  0.10320573     0.12700
H1218       H  0.18156482  0.11244065  0.13941691     0.14700
C1219       C  0.19034010  0.98787341  0.22589283    -0.05400
C1220       C  0.16614696  0.00106067  0.24355904    -0.05300
C1221       C  0.14706297  0.02470270  0.23038040    -0.23400
C1222       C  0.15172074  0.03559045  0.19929400     0.18800
C1223       C  0.17458232  0.02119186  0.18067465     0.16000
C1224       C  0.19363768  0.99730868  0.19399760    -0.18500
C1225       C  0.17820980  0.03117463  0.14916937    -0.20300
C1226       C  0.15985182  0.05574468  0.13652813    -0.12900
C1227       C  0.13842390  0.07211863  0.15541950     0.03800
C1228       C  0.13386318  0.06070252  0.18668627    -0.25000
H1229       H  0.16270120  0.99447697  0.26811662     0.08900
H1230       H  0.12928184  0.03515975  0.24485585     0.12500
H1231       H  0.21168697  0.98690991  0.17983471     0.12400
H1232       H  0.19510869  0.01989552  0.13424514     0.12200
H1233       H  0.16251456  0.06232009  0.11178447     0.12700
H1234       H  0.11571951  0.07033316  0.20115498     0.14700
C1235       C  0.01648280  0.18410815  0.21606601    -0.05400
C1236       C  0.00149159  0.17006330  0.19030297    -0.05300
C1237       C  0.01743167  0.14857158  0.17170264    -0.23400
C1238       C  0.04878454  0.14164435  0.17825358     0.18800
C1239       C  0.06407632  0.15609053  0.20403908     0.16000
C1240       C  0.04760878  0.17682978  0.22321174    -0.18500
C1241       C  0.09581828  0.15064206  0.20934301    -0.20300
C1242       C  0.11239020  0.13143622  0.18893322    -0.12900
C1243       C  0.09734811  0.11574452  0.16373479     0.03800
C1244       C  0.06528079  0.12148195  0.15861904    -0.25000
H1245       H  0.97749880  0.17579056  0.18461346     0.08900
H1246       H  0.00545819  0.13789920  0.15182353     0.12500
H1247       H  0.05920272  0.18824651  0.24293389     0.12400
H1248       H  0.10804654  0.16205044  0.22864408     0.12200
H1249       H  0.13722360  0.12884061  0.19266531     0.12700
H1250       H  0.05321377  0.11193631  0.13828667     0.14700
C1251       C  0.03937342  0.02309673  0.02727369    -0.05400
C1252       C  0.05953046  0.04624696  0.01369774    -0.05300
C1253       C  0.07922133  0.06455197  0.03238336    -0.23400
C1254       C  0.07889372  0.06076583  0.06527251     0.18800
C1255       C  0.05926887  0.03759462  0.07934773     0.16000
C1256       C  0.04049933  0.01826473  0.06037500    -0.18500
C1257       C  0.05859364  0.03414941  0.11227062    -0.20300
C1258       C  0.07672708  0.05393608  0.13106104    -0.12900
C1259       C  0.09636157  0.07752811  0.11750380     0.03800
C1260       C  0.09788245  0.07986996  0.08422981    -0.25000
H1261       H  0.05973114  0.05032663  0.98830588     0.08900
H1262       H  0.09422771  0.08212118  0.02111026     0.12500
H1263       H  0.02694788  0.99977615  0.07186913     0.12400
H1264       H  0.04374414  0.01643471  0.12353942     0.12200
H1265       H  0.07540973  0.05092518  0.15651663     0.12700
H1266       H  0.11395827  0.09607695  0.07269272     0.14700
loop_ 
_geom_bond_atom_site_label_1 
_geom_bond_atom_site_label_2 
_geom_bond_distance 
_geom_bond_site_symmetry_2 
_ccdc_geom_bond_type 
C1         C1211   1.550       .  S
C1         C1227   1.545       .  S
C1         C1243   1.544       .  S
C1         C1259   1.542       .  S
C2         C1147   1.546       .  S
C2         C1155   1.549       .  S
C2         C1171   1.552       .  S
C2         C1187   1.549       .  S
C3         C1083   1.553       .  S
C3         C1099   1.552       .  S
C3         C1107   1.547       .  S
C3         C1123   1.546       .  S
C4         C1011   1.547       .  S
C4         C1027   1.551       .  S
C4         C1043   1.545       .  S
C4         C1067   1.545       .  S
C5         C1059   1.549   1_544  S
C5         C1131   1.556   1_445  S
C5         C1195   1.550   1_454  S
C5         C1251   1.544       .  S
N6            N7   1.323       .  A
N6           C10   1.356       .  A
N6          Cu14   2.082       .  S
N7            C8   1.348       .  A
N7          Cu13   2.138       .  S
C8            C9   1.398       .  A
C8           H11   1.082       .  S
C9           C10   1.388       .  A
C9          C212   1.495       .  S
C10          H12   1.082       .  S
Cu13         N16   2.137       .  S
Cu14         N24   2.084       .  S
Cu15         N17   2.057       .  S
Cu15         N23   2.059       .  S
N16          N17   1.322       .  A
N16          C20   1.345       .  A
N17          C18   1.355       .  A
C18          C19   1.383       .  A
C18          H21   1.082       .  S
C19          C20   1.398       .  A
C19         C313   1.488       .  S
C20          H22   1.082       .  S
N23          N24   1.324       .  A
N23          C27   1.341       .  A
N24          C25   1.345       .  A
C25          C26   1.386       .  A
C25          H28   1.082       .  S
C26          C27   1.380       .  A
C26         C995   1.475       .  S
C27          H29   1.082       .  S
N30          N31   1.324       .  A
N30          C34   1.356       .  A
N30         Cu38   2.077       .  S
N31          C32   1.346       .  A
N31         Cu37   2.132       .  S
C32          C33   1.395       .  A
C32          H35   1.082       .  S
C33          C34   1.386       .  A
C33         C326   1.491       .  S
C34          H36   1.082       .  S
Cu37         N40   2.132       .  S
Cu38         N48   2.077       .  S
Cu39         N41   2.061       .  S
Cu39         N47   2.062       .  S
N40          N41   1.322       .  A
N40          C44   1.347       .  A
N41          C42   1.354       .  A
C42          C43   1.383       .  A
C42          H45   1.082       .  S
C43          C44   1.398       .  A
C43         C112   1.488       .  S
C44          H46   1.082       .  S
N47          N48   1.323       .  A
N47          C51   1.340       .  A
N48          C49   1.343       .  A
C49          C50   1.383       .  A
C49          H52   1.082       .  S
C50          C51   1.381       .  A
C50         C979   1.463       .  S
C51          H53   1.082       .  S
N54          N55   1.322       .  A
N54          C58   1.356       .  A
N54         Cu62   2.065       .  S
N55          C56   1.344       .  A
N55         Cu61   2.129       .  S
C56          C57   1.396       .  A
C56          H59   1.082       .  S
C57          C58   1.385       .  A
C57         C526   1.489       .  S
C58          H60   1.082       .  S
Cu61         N64   2.129       .  S
Cu62         N72   2.066       .  S
Cu63         N65   2.078       .  S
Cu63         N71   2.078       .  S
N64          N65   1.323       .  A
N64          C68   1.347       .  A
N65          C66   1.357       .  A
C66          C67   1.388       .  A
C66          H69   1.082       .  S
C67          C68   1.395       .  A
C67         C113   1.493       .  S
C68          H70   1.082       .  S
N71          N72   1.324       .  A
N71          C75   1.342       .  A
N72          C73   1.341       .  A
C73          C74   1.383       .  A
C73          H76   1.082       .  S
C74          C75   1.387       .  A
C74         C971   1.478       .  S
C75          H77   1.081       .  S
N78          N79   1.322       .  A
N78          C82   1.352       .  A
N78         Cu86   2.056       .  S
N79          C80   1.348       .  A
N79         Cu85   2.134       .  S
C80          C81   1.398       .  A
C80          H83   1.082       .  S
C81          C82   1.382       .  A
C81         C426   1.486       .  S
C82          H84   1.082       .  S
Cu85         N88   2.134       .  S
Cu86         N96   2.055       .  S
Cu87         N89   2.077       .  S
Cu87         N95   2.079       .  S
N88          N89   1.324       .  A
N88          C92   1.345       .  A
N89          C90   1.357       .  A
C90          C91   1.387       .  A
C90          H93   1.082       .  S
C91          C92   1.396       .  A
C91         C126   1.491       .  S
C92          H94   1.082       .  S
N95          N96   1.322       .  A
N95          C99   1.342       .  A
N96          C97   1.340       .  A
C97          C98   1.384       .  A
C97         H100   1.080       .  S
C98          C99   1.390       .  A
C98         C955   1.483       .  S
C99         H101   1.081       .  S
O102       Cu110   2.109   1_556  S
O102        C112   1.293       .  A
O103       Cu110   2.105       .  S
O103        C113   1.292       .  A
O104       Cu110   1.960       .  S
O104        C114   1.266       .  A
O105       Cu110   1.966       .  S
O105        C115   1.267       .  A
O106       Cu111   2.110       .  S
O106        C115   1.293       .  A
O107       Cu111   2.112       .  S
O107        C114   1.293       .  A
O108       Cu111   1.967       .  S
O108        C113   1.267       .  A
O109       Cu111   1.946   1_556  S
O109        C112   1.264       .  A
Cu110      Cu111   2.361       .  S
C114        C405   1.494       .  S
C115        C133   1.495       .  S
O116       Cu124   2.115       .  S
O116        C126   1.293       .  A
O117       Cu124   2.115   1_556  S
O117        C127   1.294       .  A
O118       Cu124   1.953       .  S
O118        C128   1.266       .  A
O119       Cu124   1.947       .  S
O119        C129   1.264       .  A
O120       Cu125   2.124       .  S
O120        C129   1.295       .  A
O121       Cu125   2.122       .  S
O121        C128   1.294       .  A
O122       Cu125   1.937   1_556  S
O122        C127   1.263       .  A
O123       Cu125   1.943       .  S
O123        C126   1.264       .  A
Cu124      Cu125   2.360       .  S
C127        C167   1.488       .  S
C128        C505   1.498       .  S
C129        C143   1.495       .  S
N130        N131   1.323       .  A
N130        C134   1.355       .  A
N130       Cu138   2.070   1_554  S
N131        C132   1.349       .  A
N131       Cu137   2.143       .  S
C132        C133   1.399       .  A
C132        H135   1.082       .  S
C133        C134   1.385       .  A
C134        H136   1.082       .  S
Cu137       N140   2.143       .  S
Cu138       N148   2.071       .  S
Cu139       N141   2.077       .  S
Cu139       N147   2.078       .  S
N140        N141   1.324   1_554  A
N140        C144   1.347       .  A
N141        C142   1.358       .  A
C142        C143   1.386   1_556  A
C142        H145   1.082       .  S
C143        C144   1.398       .  A
C144        H146   1.082       .  S
N147        N148   1.323       .  A
N147        C151   1.343       .  A
N148        C149   1.342       .  A
C149        C150   1.386       .  A
C149        H152   1.081       .  S
C150        C151   1.389       .  A
C150       C1075   1.484   1_556  S
C151        H153   1.081       .  S
N154        N155   1.324       .  A
N154        C158   1.355       .  A
N154       Cu162   2.076       .  S
N155        C156   1.346       .  A
N155       Cu161   2.129       .  S
C156        C157   1.395       .  A
C156        H159   1.082       .  S
C157        C158   1.385       .  A
C157        C228   1.490       .  S
C158        H160   1.082       .  S
Cu161       N164   2.129       .  S
Cu162       N172   2.078       .  S
Cu163       N165   2.059       .  S
Cu163       N171   2.060       .  S
N164        N165   1.321       .  A
N164        C168   1.344       .  A
N165        C166   1.355       .  A
C166        C167   1.384       .  A
C166        H169   1.082       .  S
C167        C168   1.397       .  A
C168        H170   1.082       .  S
N171        N172   1.323       .  A
N171        C175   1.339       .  A
N172        C173   1.345       .  A
C173        C174   1.387       .  A
C173        H176   1.082       .  S
C174        C175   1.382       .  A
C174        C939   1.478       .  S
C175        H177   1.081       .  S
N178        N179   1.324       .  A
N178        C182   1.356       .  A
N178       Cu186   2.068       .  S
N179        C180   1.346       .  A
N179       Cu185   2.141       .  S
C180        C181   1.398       .  A
C180        H183   1.082       .  S
C181        C182   1.384       .  A
C181        C588   1.491       .  S
C182        H184   1.082       .  S
Cu185       N188   2.141       .  S
Cu186       N196   2.070       .  S
Cu187       N189   2.063       .  S
Cu187       N195   2.064       .  S
N188        N189   1.323       .  A
N188        C192   1.349       .  A
N189        C190   1.354       .  A
C190        C191   1.383       .  A
C190        H193   1.082       .  S
C191        C192   1.399       .  A
C191        C213   1.493       .  S
C192        H194   1.082       .  S
N195        N196   1.323       .  A
N195        C199   1.342       .  A
N196        C197   1.342       .  A
C197        C198   1.384       .  A
C197        H200   1.082       .  S
C198        C199   1.381       .  A
C198        C915   1.473       .  S
C199        H201   1.082       .  S
O202       Cu210   2.110       .  S
O202        C212   1.293       .  A
O203       Cu210   2.109   1_455  S
O203        C213   1.293       .  A
O204       Cu210   1.934       .  S
O204        C214   1.263       .  A
O205       Cu210   1.963       .  S
O205        C215   1.266       .  A
O206       Cu211   2.110       .  S
O206        C215   1.293       .  A
O207       Cu211   2.112       .  S
O207        C214   1.293       .  A
O208       Cu211   1.961   1_455  S
O208        C213   1.266       .  A
O209       Cu211   1.966       .  S
O209        C212   1.267       .  A
Cu210      Cu211   2.360       .  S
C214        C233   1.486       .  S
C215        C443   1.494   1_655  S
O216       Cu224   2.109       .  S
O216        C226   1.292       .  A
O217       Cu224   2.104       .  S
O217        C227   1.291       .  A
O218       Cu224   1.958   1_655  S
O218        C228   1.267       .  A
O219       Cu224   1.964       .  S
O219        C229   1.267       .  A
O220       Cu225   2.099       .  S
O220        C229   1.291       .  A
O221       Cu225   2.103   1_655  S
O221        C228   1.292       .  A
O222       Cu225   1.963       .  S
O222        C227   1.267       .  A
O223       Cu225   1.944       .  S
O223        C226   1.265       .  A
Cu224      Cu225   2.362       .  S
C226        C643   1.488       .  S
C227        C243   1.492   1_455  S
C229        C257   1.489       .  S
N230        N231   1.322       .  A
N230        C234   1.356       .  A
N230       Cu238   2.061       .  S
N231        C232   1.342       .  A
N231       Cu237   2.123       .  S
C232        C233   1.395       .  A
C232        H235   1.082   1_655  S
C233        C234   1.385       .  A
C234        H236   1.082       .  S
Cu237       N240   2.123       .  S
Cu238       N248   2.062       .  S
Cu239       N241   2.080       .  S
Cu239       N247   2.081       .  S
N240        N241   1.322       .  A
N240        C244   1.346       .  A
N241        C242   1.357       .  A
C242        C243   1.388       .  A
C242        H245   1.082       .  S
C243        C244   1.395       .  A
C244        H246   1.082   1_655  S
N247        N248   1.325       .  A
N247        C251   1.343       .  A
N248        C249   1.341       .  A
C249        C250   1.378       .  A
C249        H252   1.082       .  S
C250        C251   1.382       .  A
C250       C1019   1.460       .  S
C251        H253   1.082       .  S
N254        N255   1.322       .  A
N254        C258   1.354       .  A
N254       Cu262   2.073       .  S
N255        C256   1.348       .  A
N255       Cu261   2.129       .  S
C256        C257   1.396       .  A
C256        H259   1.082       .  S
C257        C258   1.386       .  A
C258        H260   1.082       .  S
Cu261       N264   2.129       .  S
Cu262       N272   2.074       .  S
Cu263       N265   2.066       .  S
Cu263       N271   2.069       .  S
N264        N265   1.323       .  A
N264        C268   1.345       .  A
N265        C266   1.355       .  A
C266        C267   1.384       .  A
C266        H269   1.082       .  S
C267        C268   1.396       .  A
C267        C389   1.487       .  S
C268        H270   1.082       .  S
N271        N272   1.325       .  A
N271        C275   1.344       .  A
N272        C273   1.343       .  A
C273        C274   1.379       .  A
C273        H276   1.082       .  S
C274        C275   1.379       .  A
C274        C899   1.466       .  S
C275        H277   1.082       .  S
N278        N279   1.322       .  A
N278        C282   1.354       .  A
N278       Cu286   2.057       .  S
N279        C280   1.347       .  A
N279       Cu285   2.137       .  S
C280        C281   1.398       .  A
C280        H283   1.082       .  S
C281        C282   1.383       .  A
C281        C626   1.488       .  S
C282        H284   1.082       .  S
Cu285       N288   2.137       .  S
Cu286       N296   2.056       .  S
Cu287       N289   2.076       .  S
Cu287       N295   2.077       .  S
N288        N289   1.324       .  A
N288        C292   1.347       .  A
N289        C290   1.356       .  A
C290        C291   1.385       .  A
C290        H293   1.082       .  S
C291        C292   1.397       .  A
C291        C312   1.492       .  S
C292        H294   1.082       .  S
N295        N296   1.323       .  A
N295        C299   1.344       .  A
N296        C297   1.339       .  A
C297        C298   1.377       .  A
C297        H300   1.082       .  S
C298        C299   1.383       .  A
C298        C883   1.460       .  S
C299        H301   1.082       .  S
O302       Cu310   1.958       .  S
O302        C312   1.266       .  A
O303       Cu310   1.934   1_565  S
O303        C313   1.263       .  A
O304       Cu310   2.104       .  S
O304        C314   1.292       .  A
O305       Cu310   2.112       .  S
O305        C315   1.293       .  A
O306       Cu311   1.951       .  S
O306        C315   1.265       .  A
O307       Cu311   1.954       .  S
O307        C314   1.265       .  A
O308       Cu311   2.117   1_565  S
O308        C313   1.294       .  A
O309       Cu311   2.108       .  S
O309        C312   1.293       .  A
Cu310      Cu311   2.363       .  S
C314        C533   1.489       .  S
C315        C343   1.491   1_545  S
O316       Cu324   1.957   1_565  S
O316        C326   1.266       .  A
O317       Cu324   1.948       .  S
O317        C327   1.266       .  A
O318       Cu324   2.101       .  S
O318        C328   1.291       .  A
O319       Cu324   2.098       .  S
O319        C329   1.291   1_545  A
O320       Cu325   1.949   1_565  S
O320        C329   1.265       .  A
O321       Cu325   1.949       .  S
O321        C328   1.265       .  A
O322       Cu325   2.109       .  S
O322        C327   1.292       .  A
O323       Cu325   2.108   1_565  S
O323        C326   1.292       .  A
Cu324      Cu325   2.364       .  S
C327        C367   1.490       .  S
C328        C605   1.486       .  S
C329        C333   1.484       .  S
N330        N331   1.322       .  A
N330        C334   1.352       .  A
N330       Cu338   2.052       .  S
N331        C332   1.346   1_565  A
N331       Cu337   2.134       .  S
C332        C333   1.396   1_545  A
C332        H335   1.082       .  S
C333        C334   1.381       .  A
C334        H336   1.082       .  S
Cu337       N340   2.135       .  S
Cu338       N348   2.052       .  S
Cu339       N341   2.069       .  S
Cu339       N347   2.070       .  S
N340        N341   1.323       .  A
N340        C344   1.347   1_565  A
N341        C342   1.355       .  A
C342        C343   1.384       .  A
C342        H345   1.082       .  S
C343        C344   1.397   1_565  A
C344        H346   1.082       .  S
N347        N348   1.323       .  A
N347        C351   1.342       .  A
N348        C349   1.340       .  A
C349        C350   1.379       .  A
C349        H352   1.082       .  S
C350        C351   1.385       .  A
C350       C1139   1.471       .  S
C351        H353   1.082       .  S
N354        N355   1.322       .  A
N354        C358   1.356       .  A
N354       Cu362   2.072       .  S
N355        C356   1.343       .  A
N355       Cu361   2.115       .  S
C356        C357   1.393       .  A
C356        H359   1.082       .  S
C357        C358   1.387       .  A
C357        C488   1.488       .  S
C358        H360   1.082       .  S
Cu361       N364   2.115       .  S
Cu362       N372   2.073       .  S
Cu363       N365   2.078       .  S
Cu363       N371   2.081       .  S
N364        N365   1.322       .  A
N364        C368   1.343       .  A
N365        C366   1.358       .  A
C366        C367   1.388       .  A
C366        H369   1.082       .  S
C367        C368   1.393       .  A
C368        H370   1.082       .  S
N371        N372   1.325       .  A
N371        C375   1.343       .  A
N372        C373   1.343       .  A
C373        C374   1.382       .  A
C373        H376   1.082       .  S
C374        C375   1.385       .  A
C374        C875   1.476       .  S
C375        H377   1.082       .  S
O378       Cu386   2.109       .  S
O378        C388   1.293       .  A
O379       Cu386   2.108   1_556  S
O379        C389   1.292       .  A
O380       Cu386   1.960       .  S
O380        C390   1.266       .  A
O381       Cu386   1.957   1_556  S
O381        C391   1.266       .  A
O382       Cu387   2.119   1_556  S
O382        C391   1.294       .  A
O383       Cu387   2.109       .  S
O383        C390   1.293       .  A
O384       Cu387   1.945   1_556  S
O384        C389   1.264       .  A
O385       Cu387   1.947       .  S
O385        C388   1.265       .  A
Cu386      Cu387   2.361       .  S
C388        C457   1.489       .  S
C390        C395   1.493       .  S
C391        C729   1.496       .  S
N392        N393   1.323   1_556  A
N392        C396   1.356       .  A
N392       Cu400   2.075       .  S
N393        C394   1.347       .  A
N393       Cu399   2.135       .  S
C394        C395   1.397       .  A
C394        H397   1.082       .  S
C395        C396   1.386   1_554  A
C396        H398   1.082       .  S
Cu399       N402   2.135       .  S
Cu400       N410   2.077       .  S
Cu401       N403   2.078       .  S
Cu401       N409   2.080       .  S
N402        N403   1.323   1_554  A
N402        C406   1.347       .  A
N403        C404   1.357   1_556  A
C404        C405   1.388       .  A
C404        H407   1.082   1_554  S
C405        C406   1.397       .  A
C406        H408   1.082       .  S
N409        N410   1.325       .  A
N409        C413   1.343       .  A
N410        C411   1.345       .  A
C411        C412   1.384       .  A
C411        H414   1.082       .  S
C412        C413   1.384       .  A
C412       C1035   1.478       .  S
C413        H415   1.082       .  S
O416       Cu424   2.105   1_655  S
O416        C426   1.293       .  A
O417       Cu424   2.111       .  S
O417        C427   1.293       .  A
O418       Cu424   1.940       .  S
O418        C428   1.263       .  A
O419       Cu424   1.945       .  S
O419        C429   1.264       .  A
O420       Cu425   2.117       .  S
O420        C429   1.294       .  A
O421       Cu425   2.121       .  S
O421        C428   1.295       .  A
O422       Cu425   1.956       .  S
O422        C427   1.266       .  A
O423       Cu425   1.948   1_655  S
O423        C426   1.264       .  A
Cu424      Cu425   2.362       .  S
C427        C467   1.492       .  S
C428        C433   1.491       .  S
C429        C691   1.493       .  S
N430        N431   1.324       .  A
N430        C434   1.356       .  A
N430       Cu438   2.069       .  S
N431        C432   1.346       .  A
N431       Cu437   2.143       .  S
C432        C433   1.398       .  A
C432        H435   1.082   1_455  S
C433        C434   1.384       .  A
C434        H436   1.082       .  S
Cu437       N440   2.143       .  S
Cu438       N448   2.070       .  S
Cu439       N441   2.068       .  S
Cu439       N447   2.068       .  S
N440        N441   1.323       .  A
N440        C444   1.350   1_455  A
N441        C442   1.354       .  A
C442        C443   1.384       .  A
C442        H445   1.082       .  S
C443        C444   1.399   1_455  A
C444        H446   1.082       .  S
N447        N448   1.323       .  A
N447        C451   1.342       .  A
N448        C449   1.341       .  A
C449        C450   1.383       .  A
C449        H452   1.082       .  S
C450        C451   1.381       .  A
C450       C1115   1.463       .  S
C451        H453   1.082       .  S
N454        N455   1.323       .  A
N454        C458   1.355       .  A
N454       Cu462   2.068       .  S
N455        C456   1.346       .  A
N455       Cu461   2.132       .  S
C456        C457   1.396       .  A
C456        H459   1.082       .  S
C457        C458   1.384       .  A
C458        H460   1.082       .  S
Cu461       N464   2.132       .  S
Cu462       N472   2.070       .  S
Cu463       N465   2.074       .  S
Cu463       N471   2.075       .  S
N464        N465   1.323       .  A
N464        C468   1.346       .  A
N465        C466   1.356       .  A
C466        C467   1.386       .  A
C466        H469   1.082       .  S
C467        C468   1.396       .  A
C468        H470   1.082       .  S
N471        N472   1.324       .  A
N471        C475   1.343       .  A
N472        C473   1.343       .  A
C473        C474   1.382       .  A
C473        H476   1.082       .  S
C474        C475   1.381       .  A
C474        C851   1.464       .  S
C475        H477   1.082       .  S
O478       Cu486   2.101       .  S
O478        C488   1.291       .  A
O479       Cu486   2.105   1_554  S
O479        C489   1.293       .  A
O480       Cu486   1.956       .  S
O480        C490   1.266       .  A
O481       Cu486   1.967       .  S
O481        C491   1.267       .  A
O482       Cu487   2.104       .  S
O482        C491   1.292       .  A
O483       Cu487   2.110       .  S
O483        C490   1.293       .  A
O484       Cu487   1.952   1_554  S
O484        C489   1.265       .  A
O485       Cu487   1.954       .  S
O485        C488   1.266       .  A
Cu486      Cu487   2.363       .  S
C489        C567   1.488       .  S
C490        C495   1.492   1_556  S
C491        C739   1.493       .  S
N492        N493   1.322       .  A
N492        C496   1.356       .  A
N492       Cu500   2.070       .  S
N493        C494   1.346   1_554  A
N493       Cu499   2.129       .  S
C494        C495   1.396   1_556  A
C494        H497   1.082       .  S
C495        C496   1.386       .  A
C496        H498   1.082       .  S
Cu499       N502   2.129       .  S
Cu500       N510   2.072       .  S
Cu501       N503   2.088       .  S
Cu501       N509   2.090       .  S
N502        N503   1.323       .  A
N502        C506   1.344       .  A
N503        C504   1.360       .  A
C504        C505   1.390       .  A
C504        H507   1.082       .  S
C505        C506   1.396       .  A
C506        H508   1.082       .  S
N509        N510   1.326       .  A
N509        C513   1.345       .  A
N510        C511   1.344       .  A
C511        C512   1.378       .  A
C511        H514   1.082       .  S
C512        C513   1.383       .  A
C512       C1163   1.464   1_554  S
C513        H515   1.082       .  S
O516       Cu524   1.934   1_565  S
O516        C526   1.263       .  A
O517       Cu524   1.957       .  S
O517        C527   1.266       .  A
O518       Cu524   2.106       .  S
O518        C528   1.292       .  A
O519       Cu524   2.097       .  S
O519        C529   1.291       .  A
O520       Cu525   1.971       .  S
O520        C529   1.267       .  A
O521       Cu525   1.954       .  S
O521        C528   1.266       .  A
O522       Cu525   2.103       .  S
O522        C527   1.292       .  A
O523       Cu525   2.117   1_565  S
O523        C526   1.294       .  A
Cu524      Cu525   2.364       .  S
C527        C557   1.490       .  S
C528        C543   1.489       .  S
C529        C715   1.490       .  S
N530        N531   1.322   1_565  A
N530        C534   1.354       .  A
N530       Cu538   2.071       .  S
N531        C532   1.347       .  A
N531       Cu537   2.131       .  S
C532        C533   1.397       .  A
C532        H535   1.082       .  S
C533        C534   1.386   1_545  A
C534        H536   1.082       .  S
Cu537       N540   2.131       .  S
Cu538       N548   2.072       .  S
Cu539       N541   2.078       .  S
Cu539       N547   2.079       .  S
N540        N541   1.323   1_545  A
N540        C544   1.347       .  A
N541        C542   1.355       .  A
C542        C543   1.386   1_565  A
C542        H545   1.082       .  S
C543        C544   1.396       .  A
C544        H546   1.082       .  S
N547        N548   1.324       .  A
N547        C551   1.345       .  A
N548        C549   1.342       .  A
C549        C550   1.382       .  A
C549        H552   1.082       .  S
C550        C551   1.384       .  A
C550       C1091   1.475       .  S
C551        H553   1.082       .  S
N554        N555   1.323       .  A
N554        C558   1.355       .  A
N554       Cu562   2.063       .  S
N555        C556   1.347       .  A
N555       Cu561   2.137       .  S
C556        C557   1.397       .  A
C556        H559   1.082       .  S
C557        C558   1.384       .  A
C558        H560   1.082       .  S
Cu561       N564   2.137       .  S
Cu562       N572   2.064       .  S
Cu563       N565   2.057       .  S
Cu563       N571   2.059       .  S
N564        N565   1.323       .  A
N564        C568   1.347       .  A
N565        C566   1.353       .  A
C566        C567   1.382       .  A
C566        H569   1.082       .  S
C567        C568   1.398       .  A
C568        H570   1.082       .  S
N571        N572   1.323       .  A
N571        C575   1.342       .  A
N572        C573   1.341       .  A
C573        C574   1.382       .  A
C573        H576   1.082       .  S
C574        C575   1.381       .  A
C574        C843   1.469       .  S
C575        H577   1.082       .  S
O578       Cu586   1.941   1_565  S
O578        C588   1.263       .  A
O579       Cu586   1.940       .  S
O579        C589   1.264       .  A
O580       Cu586   2.110       .  S
O580        C590   1.293       .  A
O581       Cu586   2.105       .  S
O581        C591   1.292       .  A
O582       Cu587   1.946       .  S
O582        C591   1.264       .  A
O583       Cu587   1.945       .  S
O583        C590   1.263       .  A
O584       Cu587   2.114       .  S
O584        C589   1.293       .  A
O585       Cu587   2.118   1_565  S
O585        C588   1.294       .  A
Cu586      Cu587   2.358       .  S
C589        C657   1.489       .  S
C590        C705   1.487       .  S
C591        C595   1.486       .  S
N592        N593   1.322       .  A
N592        C596   1.355       .  A
N592       Cu600   2.068       .  S
N593        C594   1.344       .  A
N593       Cu599   2.123       .  S
C594        C595   1.395       .  A
C594        H597   1.082   1_545  S
C595        C596   1.386       .  A
C596        H598   1.082       .  S
Cu599       N602   2.123       .  S
Cu600       N610   2.067       .  S
Cu601       N603   2.067       .  S
Cu601       N609   2.068       .  S
N602        N603   1.322       .  A
N602        C606   1.344       .  A
N603        C604   1.355       .  A
C604        C605   1.385       .  A
C604        H607   1.082       .  S
C605        C606   1.394       .  A
C606        H608   1.082   1_545  S
N609        N610   1.324       .  A
N609        C613   1.342       .  A
N610        C611   1.341       .  A
C611        C612   1.384       .  A
C611        H614   1.081       .  S
C612        C613   1.384       .  A
C612       C1051   1.477       .  S
C613        H615   1.082       .  S
O616       Cu624   1.952       .  S
O616        C626   1.265       .  A
O617       Cu624   1.946   1_455  S
O617        C627   1.265       .  A
O618       Cu624   2.108   1_455  S
O618        C628   1.292       .  A
O619       Cu624   2.107       .  S
O619        C629   1.293       .  A
O620       Cu625   1.948       .  S
O620        C629   1.265       .  A
O621       Cu625   1.954   1_455  S
O621        C628   1.266       .  A
O622       Cu625   2.104   1_455  S
O622        C627   1.292       .  A
O623       Cu625   2.108       .  S
O623        C626   1.293       .  A
Cu624      Cu625   2.364       .  S
C627        C667   1.486       .  S
C628        C633   1.491       .  S
C629        C681   1.488       .  S
N630        N631   1.322       .  A
N630        C634   1.356       .  A
N630       Cu638   2.072       .  S
N631        C632   1.345       .  A
N631       Cu637   2.124       .  S
C632        C633   1.395       .  A
C632        H635   1.082       .  S
C633        C634   1.386       .  A
C634        H636   1.082       .  S
Cu637       N640   2.124       .  S
Cu638       N648   2.074       .  S
Cu639       N641   2.067       .  S
Cu639       N647   2.069       .  S
N640        N641   1.322       .  A
N640        C644   1.343       .  A
N641        C642   1.356       .  A
C642        C643   1.386       .  A
C642        H645   1.082       .  S
C643        C644   1.394       .  A
C644        H646   1.082       .  S
N647        N648   1.325       .  A
N647        C651   1.342   1_455  A
N648        C649   1.343   1_455  A
C649        C650   1.383       .  A
C649        H652   1.082       .  S
C650        C651   1.382       .  A
C650       C1179   1.473       .  S
C651        H653   1.082       .  S
N654        N655   1.323       .  A
N654        C658   1.357       .  A
N654       Cu662   2.072       .  S
N655        C656   1.343       .  A
N655       Cu661   2.126       .  S
C656        C657   1.395       .  A
C656        H659   1.082       .  S
C657        C658   1.386       .  A
C658        H660   1.082       .  S
Cu661       N664   2.125       .  S
Cu662       N672   2.075       .  S
Cu663       N665   2.060       .  S
Cu663       N671   2.061       .  S
N664        N665   1.321       .  A
N664        C668   1.345       .  A
N665        C666   1.354       .  A
C666        C667   1.384       .  A
C666        H669   1.082       .  S
C667        C668   1.396       .  A
C668        H670   1.082       .  S
N671        N672   1.323       .  A
N671        C675   1.340       .  A
N672        C673   1.342       .  A
C673        C674   1.386       .  A
C673        H676   1.082       .  S
C674        C675   1.382       .  A
C674        C819   1.475       .  S
C675        H677   1.081       .  S
N678        N679   1.322       .  A
N678        C682   1.354       .  A
N678       Cu686   2.057       .  S
N679        C680   1.346       .  A
N679       Cu685   2.133       .  S
C680        C681   1.397       .  A
C680        H683   1.082   1_655  S
C681        C682   1.383       .  A
C682        H684   1.082       .  S
Cu685       N688   2.134   1_655  S
Cu686       N696   2.059       .  S
Cu687       N689   2.075       .  S
Cu687       N695   2.077       .  S
N688        N689   1.323   1_455  A
N688        C692   1.345       .  A
N689        C690   1.358       .  A
C690        C691   1.387   1_655  A
C690        H693   1.082       .  S
C691        C692   1.396       .  A
C692        H694   1.082       .  S
N695        N696   1.325       .  A
N695        C699   1.344       .  A
N696        C697   1.341       .  A
C697        C698   1.376   1_655  A
C697        H700   1.082       .  S
C698        C699   1.380   1_455  A
C698       C1235   1.459       .  S
C699        H701   1.082   1_655  S
N702        N703   1.323   1_565  A
N702        C706   1.353       .  A
N702       Cu710   2.061       .  S
N703        C704   1.348       .  A
N703       Cu709   2.141       .  S
C704        C705   1.399       .  A
C704        H707   1.082       .  S
C705        C706   1.383   1_545  A
C706        H708   1.082       .  S
Cu709       N712   2.141       .  S
Cu710       N720   2.056       .  S
Cu711       N713   2.067       .  S
Cu711       N719   2.068       .  S
N712        N713   1.323   1_545  A
N712        C716   1.350       .  A
N713        C714   1.353       .  A
C714        C715   1.383   1_565  A
C714        H717   1.082       .  S
C715        C716   1.398       .  A
C716        H718   1.082       .  S
N719        N720   1.322       .  A
N719        C723   1.342       .  A
N720        C721   1.340       .  A
C721        C722   1.385       .  A
C721        H724   1.080       .  S
C722        C723   1.387       .  A
C722       C1219   1.481       .  S
C723        H725   1.082       .  S
N726        N727   1.325       .  A
N726        C730   1.358   1_556  A
N726       Cu734   2.085   1_556  S
N727        C728   1.347       .  A
N727       Cu733   2.141       .  S
C728        C729   1.397       .  A
C728        H731   1.082       .  S
C729        C730   1.388   1_556  A
C730        H732   1.082       .  S
Cu733       N736   2.140       .  S
Cu734       N744   2.087       .  S
Cu735       N737   2.061   1_554  S
Cu735       N743   2.062       .  S
N736        N737   1.322       .  A
N736        C740   1.349       .  A
N737        C738   1.354       .  A
C738        C739   1.384       .  A
C738        H741   1.082       .  S
C739        C740   1.399       .  A
C740        H742   1.082       .  S
N743        N744   1.325       .  A
N743        C747   1.340       .  A
N744        C745   1.347       .  A
C745        C746   1.385       .  A
C745        H748   1.082       .  S
C746        C747   1.379       .  A
C746       C1203   1.474       .  S
C747        H749   1.082       .  S
C750        C803   1.540       .  S
C750        C827   1.546       .  S
C750        C867   1.548       .  S
C750        C907   1.544       .  S
C751        C787   1.538       .  S
C751        C835   1.544       .  S
C751        C891   1.546       .  S
C751        C947   1.546       .  S
C752        C771   1.543       .  S
C752        C931   1.549       .  S
C752        C987   1.544       .  S
C752       C1003   1.551       .  S
C753        C755   1.549       .  S
C753        C859   1.547       .  S
C753        C923   1.548       .  S
C753        C963   1.552       .  S
C754        C763   1.554       .  S
C754        C779   1.547       .  S
C754        C795   1.548       .  S
C754        C811   1.551       .  S
C755        C756   1.417       .  A
C755        C760   1.411       .  A
C756        C757   1.396       .  A
C756        H765   1.077       .  S
C757        C758   1.398       .  A
C757        H766   1.084       .  S
C758        C764   1.400       .  A
C758        C759   1.406       .  A
C759        C761   1.393       .  A
C759        C760   1.394       .  A
C760        H767   1.085       .  S
C761        C762   1.390       .  A
C761        H768   1.084       .  S
C762        C763   1.417       .  A
C762        H769   1.075       .  S
C763        C764   1.415       .  A
C764        H770   1.084       .  S
C771        C772   1.412       .  A
C771        C776   1.415       .  A
C772        C773   1.388       .  A
C772        H781   1.083       .  S
C773        C774   1.397       .  A
C773        H782   1.084       .  S
C774        C780   1.392       .  A
C774        C775   1.407       .  A
C775        C777   1.401       .  A
C775        C776   1.399       .  A
C776        H783   1.079       .  S
C777        C778   1.396       .  A
C777        H784   1.084       .  S
C778        C779   1.412       .  A
C778        H785   1.083       .  S
C779        C780   1.414       .  A
C780        H786   1.080       .  S
C787        C788   1.414       .  A
C787        C792   1.408       .  A
C788        C789   1.392       .  A
C788        H797   1.079       .  S
C789        C790   1.397       .  A
C789        H798   1.084       .  S
C790        C796   1.393       .  A
C790        C791   1.407       .  A
C791        C793   1.394       .  A
C791        C792   1.391       .  A
C792        H799   1.085       .  S
C793        C794   1.389       .  A
C793        H800   1.084       .  S
C794        C795   1.416       .  A
C794        H801   1.077       .  S
C795        C796   1.413       .  A
C796        H802   1.085       .  S
C803        C804   1.414       .  A
C803        C808   1.411       .  A
C804        C805   1.389       .  A
C804        H813   1.082       .  S
C805        C806   1.396       .  A
C805        H814   1.084       .  S
C806        C812   1.396       .  A
C806        C807   1.409       .  A
C807        C809   1.396       .  A
C807        C808   1.397       .  A
C808        H815   1.079       .  S
C809        C810   1.391       .  A
C809        H816   1.084       .  S
C810        C811   1.418       .  A
C810        H817   1.082       .  S
C811        C812   1.411       .  A
C812        H818   1.076       .  S
C819        C820   1.407       .  A
C819        C824   1.403       .  A
C820        C821   1.392       .  A
C820        H829   1.081       .  S
C821        C822   1.398       .  A
C821        H830   1.084       .  S
C822        C828   1.397       .  A
C822        C823   1.412       .  A
C823        C825   1.397       .  A
C823        C824   1.399       .  A
C824        H831   1.084       .  S
C825        C826   1.393       .  A
C825        H832   1.084       .  S
C826        C827   1.414       .  A
C826        H833   1.083       .  S
C827        C828   1.411       .  A
C828        H834   1.081       .  S
C835        C836   1.414       .  A
C835        C840   1.412       .  A
C836        C837   1.390       .  A
C836        H845   1.082       .  S
C837        C838   1.396       .  A
C837        H846   1.084       .  S
C838        C844   1.396       .  A
C838        C839   1.412       .  A
C839        C841   1.401       .  A
C839        C840   1.398       .  A
C840        H847   1.080       .  S
C841        C842   1.395       .  A
C841        H848   1.084       .  S
C842        C843   1.405       .  A
C842        H849   1.082       .  S
C843        C844   1.401       .  A
C844        H850   1.084       .  S
C851        C852   1.400       .  A
C851        C856   1.400       .  A
C852        C853   1.400       .  A
C852        H861   1.083       .  S
C853        C854   1.406       .  A
C853        H862   1.083       .  S
C854        C860   1.404       .  A
C854        C855   1.413       .  A
C855        C857   1.396       .  A
C855        C856   1.398       .  A
C856        H863   1.085       .  S
C857        C858   1.391       .  A
C857        H864   1.084       .  S
C858        C859   1.413       .  A
C858        H865   1.083       .  S
C859        C860   1.415       .  A
C860        H866   1.081       .  S
C867        C868   1.415       .  A
C867        C872   1.414       .  A
C868        C869   1.391       .  A
C868        H877   1.080       .  S
C869        C870   1.396       .  A
C869        H878   1.084       .  S
C870        C876   1.398       .  A
C870        C871   1.411       .  A
C871        C873   1.403       .  A
C871        C872   1.402       .  A
C872        H879   1.084       .  S
C873        C874   1.398       .  A
C873        H880   1.084       .  S
C874        C875   1.405       .  A
C874        H881   1.083       .  S
C875        C876   1.403       .  A
C876        H882   1.083       .  S
C883        C884   1.398       .  A
C883        C888   1.402       .  A
C884        C885   1.396       .  A
C884        H893   1.083       .  S
C885        C886   1.405       .  A
C885        H894   1.084       .  S
C886        C892   1.396       .  A
C886        C887   1.410       .  A
C887        C889   1.399       .  A
C887        C888   1.397       .  A
C888        H895   1.085       .  S
C889        C890   1.394       .  A
C889        H896   1.084       .  S
C890        C891   1.411       .  A
C890        H897   1.083       .  S
C891        C892   1.418       .  A
C892        H898   1.081       .  S
C899        C900   1.401       .  A
C899        C904   1.402       .  A
C900        C901   1.395       .  A
C900        H909   1.083       .  S
C901        C902   1.402       .  A
C901        H910   1.084       .  S
C902        C908   1.399       .  A
C902        C903   1.412       .  A
C903        C905   1.399       .  A
C903        C904   1.402       .  A
C904        H911   1.085       .  S
C905        C906   1.396       .  A
C905        H912   1.084       .  S
C906        C907   1.414       .  A
C906        H913   1.081       .  S
C907        C908   1.411       .  A
C908        H914   1.084       .  S
C915        C916   1.405       .  A
C915        C920   1.402       .  A
C916        C917   1.397       .  A
C916        H925   1.083       .  S
C917        C918   1.402       .  A
C917        H926   1.083       .  S
C918        C924   1.401       .  A
C918        C919   1.411       .  A
C919        C921   1.396       .  A
C919        C920   1.398       .  A
C920        H927   1.083       .  S
C921        C922   1.392       .  A
C921        H928   1.084       .  S
C922        C923   1.415       .  A
C922        H929   1.079       .  S
C923        C924   1.413       .  A
C924        H930   1.084       .  S
C931        C932   1.413       .  A
C931        C936   1.414       .  A
C932        C933   1.393       .  A
C932        H941   1.080       .  S
C933        C934   1.399       .  A
C933        H942   1.084       .  S
C934        C940   1.397       .  A
C934        C935   1.410       .  A
C935        C937   1.402       .  A
C935        C936   1.399       .  A
C936        H943   1.084       .  S
C937        C938   1.397       .  A
C937        H944   1.084       .  S
C938        C939   1.405       .  A
C938        H945   1.082       .  S
C939        C940   1.406       .  A
C940        H946   1.082       .  S
C947        C948   1.415       .  A
C947        C952   1.412       .  A
C948        C949   1.390       .  A
C948        H957   1.083       .  S
C949        C950   1.395       .  A
C949        H958   1.084       .  S
C950        C956   1.399       .  A
C950        C951   1.412       .  A
C951        C953   1.400       .  A
C951        C952   1.402       .  A
C952        H959   1.081       .  S
C953        C954   1.396       .  A
C953        H960   1.084       .  S
C954        C955   1.409       .  A
C954        H961   1.080       .  S
C955        C956   1.404       .  A
C956        H962   1.083       .  S
C963        C964   1.416       .  A
C963        C968   1.414       .  A
C964        C965   1.391       .  A
C964        H973   1.079       .  S
C965        C966   1.396       .  A
C965        H974   1.084       .  S
C966        C972   1.397       .  A
C966        C967   1.409       .  A
C967        C969   1.401       .  A
C967        C968   1.398       .  A
C968        H975   1.084       .  S
C969        C970   1.397       .  A
C969        H976   1.084       .  S
C970        C971   1.406       .  A
C970        H977   1.083       .  S
C971        C972   1.405       .  A
C972        H978   1.082       .  S
C979        C980   1.399       .  A
C979        C984   1.401       .  A
C980        C981   1.399       .  A
C980        H989   1.083       .  S
C981        C982   1.406       .  A
C981        H990   1.084       .  S
C982        C988   1.400       .  A
C982        C983   1.411       .  A
C983        C985   1.397       .  A
C983        C984   1.394       .  A
C984        H991   1.085       .  S
C985        C986   1.390       .  A
C985        H992   1.084       .  S
C986        C987   1.411       .  A
C986        H993   1.083       .  S
C987        C988   1.416       .  A
C988        H994   1.081       .  S
C995        C996   1.404       .  A
C995       C1000   1.406       .  A
C996        C997   1.394       .  A
C996       H1005   1.082       .  S
C997        C998   1.401       .  A
C997       H1006   1.084       .  S
C998       C1004   1.397       .  A
C998        C999   1.410       .  A
C999       C1001   1.400       .  A
C999       C1000   1.401       .  A
C1000      H1007   1.083       .  S
C1001      C1002   1.396       .  A
C1001      H1008   1.084       .  S
C1002      C1003   1.413       .  A
C1002      H1009   1.083       .  S
C1003      C1004   1.414       .  A
C1004      H1010   1.080       .  S
C1011      C1012   1.412       .  A
C1011      C1016   1.416       .  A
C1012      C1013   1.394       .  A
C1012      H1021   1.083       .  S
C1013      C1014   1.399       .  A
C1013      H1022   1.084       .  S
C1014      C1020   1.398       .  A
C1014      C1015   1.411       .  A
C1015      C1017   1.405   1_455  A
C1015      C1016   1.398       .  A
C1016      H1023   1.080       .  S
C1017      C1018   1.396       .  A
C1017      H1024   1.084       .  S
C1018      C1019   1.398       .  A
C1018      H1025   1.083       .  S
C1019      C1020   1.402   1_655  A
C1020      H1026   1.085       .  S
C1027      C1028   1.414       .  A
C1027      C1032   1.414       .  A
C1028      C1029   1.396       .  A
C1028      H1037   1.083       .  S
C1029      C1030   1.400       .  A
C1029      H1038   1.084       .  S
C1030      C1036   1.404       .  A
C1030      C1031   1.411       .  A
C1031      C1033   1.401       .  A
C1031      C1032   1.401       .  A
C1032      H1039   1.080       .  S
C1033      C1034   1.395       .  A
C1033      H1040   1.084       .  S
C1034      C1035   1.405       .  A
C1034      H1041   1.082       .  S
C1035      C1036   1.406       .  A
C1036      H1042   1.084       .  S
C1043      C1044   1.413       .  A
C1043      C1048   1.414       .  A
C1044      C1045   1.394       .  A
C1044      H1053   1.079       .  S
C1045      C1046   1.399       .  A
C1045      H1054   1.084       .  S
C1046      C1052   1.398   1_565  A
C1046      C1047   1.409       .  A
C1047      C1049   1.401   1_565  A
C1047      C1048   1.395       .  A
C1048      H1055   1.084       .  S
C1049      C1050   1.395       .  A
C1049      H1056   1.084   1_545  S
C1050      C1051   1.405       .  A
C1050      H1057   1.083       .  S
C1051      C1052   1.407       .  A
C1052      H1058   1.082       .  S
C1059      C1060   1.416       .  A
C1059      C1064   1.410       .  A
C1060      C1061   1.393       .  A
C1060      H1069   1.083   1_556  S
C1061      C1062   1.398       .  A
C1061      H1070   1.084       .  S
C1062      C1068   1.399       .  A
C1062      C1063   1.410       .  A
C1063      C1065   1.396       .  A
C1063      C1064   1.397       .  A
C1064      H1071   1.079   1_565  S
C1065      C1066   1.389       .  A
C1065      H1072   1.084       .  S
C1066      C1067   1.415       .  A
C1066      H1073   1.083       .  S
C1067      C1068   1.412       .  A
C1068      H1074   1.080       .  S
C1075      C1076   1.408       .  A
C1075      C1080   1.405       .  A
C1076      C1077   1.398       .  A
C1076      H1085   1.082   1_554  S
C1077      C1078   1.401       .  A
C1077      H1086   1.084       .  S
C1078      C1084   1.403       .  A
C1078      C1079   1.411       .  A
C1079      C1081   1.396       .  A
C1079      C1080   1.399       .  A
C1080      H1087   1.082       .  S
C1081      C1082   1.391       .  A
C1081      H1088   1.084       .  S
C1082      C1083   1.416       .  A
C1082      H1089   1.080       .  S
C1083      C1084   1.413       .  A
C1084      H1090   1.084       .  S
C1091      C1092   1.403       .  A
C1091      C1096   1.405       .  A
C1092      C1093   1.397       .  A
C1092      H1101   1.083       .  S
C1093      C1094   1.404       .  A
C1093      H1102   1.084       .  S
C1094      C1100   1.401       .  A
C1094      C1095   1.410       .  A
C1095      C1097   1.398       .  A
C1095      C1096   1.401       .  A
C1096      H1103   1.084       .  S
C1097      C1098   1.394       .  A
C1097      H1104   1.084       .  S
C1098      C1099   1.413       .  A
C1098      H1105   1.083       .  S
C1099      C1100   1.417       .  A
C1100      H1106   1.079       .  S
C1107      C1108   1.413       .  A
C1107      C1112   1.417       .  A
C1108      C1109   1.389       .  A
C1108      H1117   1.083       .  S
C1109      C1110   1.396       .  A
C1109      H1118   1.084       .  S
C1110      C1116   1.394       .  A
C1110      C1111   1.411       .  A
C1111      C1113   1.406   1_655  A
C1111      C1112   1.402       .  A
C1112      H1119   1.081       .  S
C1113      C1114   1.400       .  A
C1113      H1120   1.083       .  S
C1114      C1115   1.400       .  A
C1114      H1121   1.083       .  S
C1115      C1116   1.400   1_455  A
C1116      H1122   1.085       .  S
C1123      C1124   1.415       .  A
C1123      C1128   1.409       .  A
C1124      C1125   1.401       .  A
C1124      H1133   1.079       .  S
C1125      C1126   1.402       .  A
C1125      H1134   1.084       .  S
C1126      C1132   1.405       .  A
C1126      C1127   1.407       .  A
C1127      C1129   1.392       .  A
C1127      C1128   1.393       .  A
C1128      H1135   1.084       .  S
C1129      C1130   1.387   1_655  A
C1129      H1136   1.084       .  S
C1130      C1131   1.418   1_455  A
C1130      H1137   1.077   1_554  S
C1131      C1132   1.417       .  A
C1132      H1138   1.084   1_565  S
C1139      C1140   1.404       .  A
C1139      C1144   1.403   1_565  A
C1140      C1141   1.395   1_565  A
C1140      H1149   1.083       .  S
C1141      C1142   1.401       .  A
C1141      H1150   1.084       .  S
C1142      C1148   1.397       .  A
C1142      C1143   1.411       .  A
C1143      C1145   1.397       .  A
C1143      C1144   1.397       .  A
C1144      H1151   1.083       .  S
C1145      C1146   1.392       .  A
C1145      H1152   1.084       .  S
C1146      C1147   1.415       .  A
C1146      H1153   1.079       .  S
C1147      C1148   1.412       .  A
C1148      H1154   1.085       .  S
C1155      C1156   1.414       .  A
C1155      C1160   1.415       .  A
C1156      C1157   1.390       .  A
C1156      H1165   1.083       .  S
C1157      C1158   1.395       .  A
C1157      H1166   1.084       .  S
C1158      C1164   1.398       .  A
C1158      C1159   1.413       .  A
C1159      C1161   1.406       .  A
C1159      C1160   1.405       .  A
C1160      H1167   1.080       .  S
C1161      C1162   1.400   1_556  A
C1161      H1168   1.083   1_556  S
C1162      C1163   1.401   1_554  A
C1162      H1169   1.083       .  S
C1163      C1164   1.398       .  A
C1164      H1170   1.085       .  S
C1171      C1172   1.414       .  A
C1171      C1176   1.414       .  A
C1172      C1173   1.395       .  A
C1172      H1181   1.083       .  S
C1173      C1174   1.399       .  A
C1173      H1182   1.084       .  S
C1174      C1180   1.401       .  A
C1174      C1175   1.411       .  A
C1175      C1177   1.401       .  A
C1175      C1176   1.397       .  A
C1176      H1183   1.080       .  S
C1177      C1178   1.393       .  A
C1177      H1184   1.084       .  S
C1178      C1179   1.405       .  A
C1178      H1185   1.082       .  S
C1179      C1180   1.404       .  A
C1180      H1186   1.084       .  S
C1187      C1188   1.417       .  A
C1187      C1192   1.412       .  A
C1188      C1189   1.393       .  A
C1188      H1197   1.078       .  S
C1189      C1190   1.396       .  A
C1189      H1198   1.084   1_545  S
C1190      C1196   1.399       .  A
C1190      C1191   1.408       .  A
C1191      C1193   1.396       .  A
C1191      C1192   1.399       .  A
C1192      H1199   1.084       .  S
C1193      C1194   1.394       .  A
C1193      H1200   1.084       .  S
C1194      C1195   1.417       .  A
C1194      H1201   1.079   1_656  S
C1195      C1196   1.412       .  A
C1196      H1202   1.084   1_545  S
C1203      C1204   1.405       .  A
C1203      C1208   1.403       .  A
C1204      C1205   1.394       .  A
C1204      H1213   1.083       .  S
C1205      C1206   1.400       .  A
C1205      H1214   1.084       .  S
C1206      C1212   1.401       .  A
C1206      C1207   1.413       .  A
C1207      C1209   1.397       .  A
C1207      C1208   1.403       .  A
C1208      H1215   1.084       .  S
C1209      C1210   1.394       .  A
C1209      H1216   1.084       .  S
C1210      C1211   1.415       .  A
C1210      H1217   1.082       .  S
C1211      C1212   1.413       .  A
C1212      H1218   1.080       .  S
C1219      C1220   1.408   1_565  A
C1219      C1224   1.405       .  A
C1220      C1221   1.392       .  A
C1220      H1229   1.080   1_545  S
C1221      C1222   1.398       .  A
C1221      H1230   1.084       .  S
C1222      C1228   1.398       .  A
C1222      C1223   1.411       .  A
C1223      C1225   1.398       .  A
C1223      C1224   1.401   1_545  A
C1224      H1231   1.084       .  S
C1225      C1226   1.394       .  A
C1225      H1232   1.084       .  S
C1226      C1227   1.414       .  A
C1226      H1233   1.083       .  S
C1227      C1228   1.412       .  A
C1228      H1234   1.081       .  S
C1235      C1236   1.398       .  A
C1235      C1240   1.402       .  A
C1236      C1237   1.394       .  A
C1236      H1245   1.083   1_455  S
C1237      C1238   1.403       .  A
C1237      H1246   1.084       .  S
C1238      C1244   1.397       .  A
C1238      C1239   1.412       .  A
C1239      C1241   1.399       .  A
C1239      C1240   1.400       .  A
C1240      H1247   1.085       .  S
C1241      C1242   1.395       .  A
C1241      H1248   1.084       .  S
C1242      C1243   1.412       .  A
C1242      H1249   1.083       .  S
C1243      C1244   1.414       .  A
C1244      H1250   1.081       .  S
C1251      C1252   1.416       .  A
C1251      C1256   1.410       .  A
C1252      C1253   1.390       .  A
C1252      H1261   1.083   1_554  S
C1253      C1254   1.396       .  A
C1253      H1262   1.084       .  S
C1254      C1260   1.398       .  A
C1254      C1255   1.411       .  A
C1255      C1257   1.396       .  A
C1255      C1256   1.399       .  A
C1256      H1263   1.079   1_545  S
C1257      C1258   1.390       .  A
C1257      H1264   1.084       .  S
C1258      C1259   1.414       .  A
C1258      H1265   1.083       .  S
C1259      C1260   1.410       .  A
C1260      H1266   1.080       .  S
