geometry optimzed in LAMMPS
_audit_creation_date              2020-11-30 
_audit_creation_method            'lammps2cif' 
_symmetry_space_group_name_H-M    'P1' 
_symmetry_Int_Tables_number       1 
_symmetry_cell_setting            triclinic 
loop_ 
_symmetry_equiv_pos_as_xyz 
  x,y,z 
_cell_length_a                    26.31240488 
_cell_length_b                    29.62988420195322 
_cell_length_c                    29.591181509996638 
_cell_angle_alpha                 90.50807957002463 
_cell_angle_beta                  90.27449939726371 
_cell_angle_gamma                 89.95692889042604 
loop_ 
_atom_site_label 
_atom_site_type_symbol 
_atom_site_fract_x 
_atom_site_fract_y 
_atom_site_fract_z 
_atom_site_charge 
C1          C  0.88312995  0.85171033  0.79173051     0.80900
N2          N  0.83491526  0.86508787  0.80107619    -0.77400
C3          C  0.80940751  0.84792280  0.83667727     0.83300
N4          N  0.83282810  0.81693327  0.86286008    -0.77400
C5          C  0.88083627  0.80292236  0.85409486     0.83400
N6          N  0.90636380  0.82076768  0.81857467    -0.79100
C7          C  0.84774593  0.74451010  0.26690869     0.80900
N8          N  0.86333482  0.78528494  0.28350156    -0.77400
C9          C  0.84221303  0.80267043  0.32183216     0.83300
N10         N  0.80620320  0.77823304  0.34349888    -0.77400
C11         C  0.79072152  0.73743833  0.32767948     0.83400
N12         N  0.81181424  0.72089180  0.28941964    -0.79100
Zr13       Zr  0.04629998  0.44884085  0.01520188     2.17500
O14         O  0.01493394  0.37394296  0.03418145    -0.50700
O15         O  0.09824763  0.42005209  0.95329420    -0.73900
O16         O  0.98220476  0.42277949  0.96191497    -0.80600
O17         O  0.12928602  0.44548247  0.11999234    -0.82400
O18         O  0.95108834  0.48408447  0.92557927    -0.78000
O19         O  0.09246518  0.40033246  0.06654950    -0.89700
O20         O  0.14139543  0.47975976  0.92521049    -0.75600
O21         O  0.05244464  0.50447467  0.95820846    -0.85100
O22         O  0.12299025  0.48939755  0.02975752    -0.84800
O23         O  0.97061583  0.49357985  0.02376254    -0.71600
O24         O  0.03645241  0.48086222  0.08952625    -0.83700
Zr25       Zr  0.04523317  0.62522672  0.05256003     2.26400
Zr26       Zr  0.97849225  0.55001431  0.96701694     2.06300
Zr27       Zr  0.11220162  0.52323348  0.10274785     2.10000
Zr28       Zr  0.12835854  0.54528899  0.97302586     1.78800
O29         O  0.10269737  0.51251712  0.18386162    -0.92500
O30         O  0.12836757  0.57312718  0.89581946    -0.40300
O31         O  0.12042252  0.57965503  0.04602446    -0.76900
O32         O  0.05496641  0.59272580  0.97846082    -0.95600
O33         O  0.96863355  0.58426934  0.03960903    -0.88900
O34         O  0.03910245  0.57015628  0.11064016    -0.91800
C35         C  0.12735924  0.43833466  0.92394599     1.02000
C36         C  0.11928397  0.40689159  0.10230397     1.14900
C37         C  0.95406216  0.44149376  0.93194681     1.05700
O38         O  0.98120543  0.56543960  0.88635314    -0.93900
O39         O  0.95456420  0.62643837  0.95180881    -0.89700
O40         O  0.00026000  0.67269826  0.99821439    -0.82800
C41         C  0.96854930  0.66541927  0.96583994     1.12300
O42         O  0.91829884  0.45969372  0.11672302    -0.95900
Zr43       Zr  0.96344968  0.52848431  0.09666242     1.88900
O44         O  0.98439401  0.65545504  0.10594351    -0.72500
O45         O  0.88590591  0.55085901  0.97030383    -0.51800
O46         O  0.87249693  0.53283939  0.08144642    -0.96500
O47         O  0.97098276  0.51395895  0.17744766    -0.53700
O48         O  0.93464033  0.59826702  0.13077155    -0.73100
C49         C  0.94809805  0.63982855  0.12989365     0.99300
O50         O  0.08370045  0.69938260  0.04264449    -0.61900
O51         O  0.20388389  0.51273664  0.10813097    -0.56700
O52         O  0.10820947  0.65238486  0.10682961    -0.93400
O53         O  0.14585725  0.59087390  0.13756423    -0.91800
O54         O  0.21716033  0.52705649  0.98759398    -0.92100
O55         O  0.18287928  0.61059755  0.96191010    -0.90900
C56         C  0.14005456  0.63361722  0.13384332     1.18100
H57         H  0.15214419  0.46956951  0.02905305     0.34100
H58         H  0.05782962  0.61599627  0.95595507     0.44900
H59         H  0.03870914  0.58437959  0.14011052     0.38500
H60         H  0.94054217  0.47552906  0.01871109     0.34900
H61         H  0.15990567  0.56085409  0.88230839     0.26700
H62         H  0.87482197  0.55966744  0.93960236     0.32700
H63         H  0.86804582  0.56070617  0.06364902     0.38600
H64         H  0.22498757  0.54198642  0.01686189     0.33000
H65         H  0.21878518  0.54254599  0.10127208     0.31900
H66         H  0.09493215  0.54276951  0.19650703     0.33600
H67         H  0.98744967  0.54109263  0.19062452     0.32600
H68         H  0.16062519  0.63690256  0.96800157     0.36500
H69         H  0.09148079  0.70162076  0.01003052     0.29300
H70         H  0.01671571  0.35578629  0.00597357     0.33500
H71         H  0.89399500  0.46869022  0.14061939     0.36400
H72         H  0.21055328  0.50854153  0.14079208     0.29000
H73         H  0.05633230  0.72170303  0.04817774     0.41800
H74         H  0.94577021  0.57310831  0.87797105     0.31900
H75         H  0.10058920  0.55634362  0.88049870     0.39500
H76         H  0.99702695  0.48995034  0.17980523     0.31400
H77         H  0.87555765  0.51887465  0.97291555     0.31400
H78         H  0.97819095  0.37801669  0.04005477     0.31700
C79         C  0.71641747  0.36232659  0.79552191     0.80900
N80         N  0.76365336  0.37479922  0.80929590    -0.77400
C81         C  0.78608371  0.35466513  0.84532545     0.83300
N82         N  0.76037616  0.32217534  0.86765649    -0.77400
C83         C  0.71343707  0.30936913  0.85393178     0.83400
N84         N  0.69156150  0.32945072  0.81788013    -0.79100
Zr85       Zr  0.54231921  0.12250736  0.03199543     2.17500
O86         O  0.50420503  0.19398705  0.00963545    -0.50700
O87         O  0.59796464  0.15366715  0.08997505    -0.73900
O88         O  0.48165563  0.14833160  0.08850724    -0.80600
O89         O  0.62179352  0.12703830  0.92633295    -0.82400
O90         O  0.45152984  0.08616176  0.12379299    -0.78000
O91         O  0.58997214  0.17146033  0.98263128    -0.89700
O92         O  0.65247390  0.09846901  0.11217849    -0.75600
O93         O  0.55430376  0.06817623  0.08970843    -0.85100
O94         O  0.61922303  0.08369311  0.01465681    -0.84800
O95         O  0.46818915  0.07538939  0.02680321    -0.71600
O96         O  0.52996637  0.08969770  0.95820812    -0.83700
Zr97       Zr  0.54499957  0.94638907  0.99523534     2.26400
Zr98       Zr  0.48197535  0.02009483  0.08400772     2.06300
Zr99       Zr  0.60626679  0.04883181  0.94243714     2.10000
Zr100      Zr  0.63063902  0.02914264  0.07168357     1.78800
O101        O  0.59178995  0.05806368  0.86167824    -0.92500
O102        O  0.63622719  0.00713298  0.15063518    -0.40300
O103        O  0.61917023  0.99344151  0.99940576    -0.76900
O104        O  0.55859630  0.97977337  0.06862736    -0.95600
O105        O  0.46838389  0.98582042  0.01169990    -0.88900
O106        O  0.53399600  0.00054978  0.93691649    -0.91800
C107        C  0.63478387  0.13886813  0.11427437     1.02000
C108        C  0.61421632  0.16533843  0.94556223     1.14900
C109        C  0.45402868  0.12896112  0.11830591     1.05700
O110        O  0.50216545  0.00210887  0.16218370    -0.93900
O111        O  0.45901388  0.94259137  0.09653619    -0.89700
O112        O  0.50330258  0.89700536  0.04862725    -0.82800
C113        C  0.47244917  0.90377712  0.08143080     1.12300
O114        O  0.40612409  0.10669472  0.93784065    -0.95900
Zr115      Zr  0.45800757  0.04049721  0.95410342     1.88900
O116        O  0.48316074  0.91432582  0.94263754    -0.72500
O117        O  0.39064432  0.01754584  0.09699133    -0.51800
O118        O  0.36866032  0.02891696  0.97203147    -0.96500
O119        O  0.46097515  0.06077552  0.87445533    -0.53700
O120        O  0.43172467  0.97070625  0.91811757    -0.73100
C121        C  0.44592254  0.92932323  0.91889450     0.99300
O122        O  0.58186173  0.87340813  0.01433665    -0.61900
O123        O  0.69806374  0.05657547  0.93478805    -0.56700
O124        O  0.60710836  0.92078478  0.94006704    -0.93400
O125        O  0.64187121  0.98227428  0.90714754    -0.91800
O126        O  0.71804402  0.04348474  0.04928774    -0.92100
O127        O  0.68226384  0.96220076  0.08457497    -0.90900
C128        C  0.63776008  0.93953183  0.91234254     1.18100
H129        H  0.64769860  0.10416429  0.01438859     0.34100
H130        H  0.56346502  0.95645106  0.09078001     0.44900
H131        H  0.53246396  0.98647038  0.90739070     0.38500
H132        H  0.43778984  0.09255191  0.03306158     0.34900
H133        H  0.67109401  0.01562608  0.16014668     0.26700
H134        H  0.37775476  0.99380648  0.07616194     0.32700
H135        H  0.36669982  0.99770319  0.98357203     0.38600
H136        H  0.73625709  0.04996028  0.07797320     0.33000
H137        H  0.70312268  0.06769332  0.90367769     0.31900
H138        H  0.62623025  0.06001194  0.84849948     0.33600
H139        H  0.47199679  0.03300604  0.85844359     0.32600
H140        H  0.66538444  0.93811981  0.06660896     0.36500
H141        H  0.57685565  0.85386701  0.98736038     0.29300
H142        H  0.50996865  0.21484519  0.03548444     0.33500
H143        H  0.38062458  0.09655990  0.91521573     0.36400
H144        H  0.70755927  0.08241908  0.95449183     0.29000
H145        H  0.61898373  0.87851777  0.01638239     0.41800
H146        H  0.51265107  0.03117789  0.17606981     0.31900
H147        H  0.61396704  0.02876448  0.16682001     0.39500
H148        H  0.49022786  0.08159498  0.87204953     0.31400
H149        H  0.38704800  0.00453543  0.12752391     0.31400
H150        H  0.46710027  0.18845500  0.00918960     0.31700
C151        C  0.20953215  0.20050405  0.24901733     0.80900
N152        N  0.18569736  0.23457617  0.22695349    -0.77400
C153        C  0.20956908  0.25665261  0.19327644     0.83300
N154        N  0.25728514  0.24450787  0.18152328    -0.77400
C155        C  0.28175203  0.21057613  0.20281343     0.83400
N156        N  0.25748582  0.18860747  0.23656961    -0.79100
C157        C  0.34435264  0.82258387  0.78223342     0.80900
N158        N  0.30785077  0.84482089  0.75865164    -0.77400
C159        C  0.28724517  0.82690422  0.72042785     0.83300
N160        N  0.30408208  0.78595441  0.70570766    -0.77400
C161        C  0.34063609  0.76289602  0.72877676     0.83400
N162        N  0.36087968  0.78178605  0.76686861    -0.79100
Zr163      Zr  0.01159910  0.04362999  0.43415938     2.17500
O164        O  0.02685582  0.02955584  0.35396928    -0.50700
O165        O  0.94204558  0.09455299  0.41380371    -0.73900
O166        O  0.95713325  0.98453504  0.40205217    -0.80600
O167        O  0.13121086  0.11683584  0.43572584    -0.82400
O168        O  0.92676820  0.94504305  0.46138325    -0.78000
O169        O  0.06775708  0.09098418  0.38997704    -0.89700
O170        O  0.91348731  0.12948108  0.47738559    -0.75600
O171        O  0.94909452  0.03848917  0.49175923    -0.85100
O172        O  0.02413543  0.10714759  0.48277628    -0.84800
O173        O  0.03004094  0.97338936  0.47111026    -0.71600
O174        O  0.09705309  0.03642670  0.46292521    -0.83700
Zr175      Zr  0.06347594  0.02629015  0.60905152     2.26400
Zr176      Zr  0.96800488  0.96985587  0.53002628     2.06300
Zr177      Zr  0.10855935  0.09970235  0.51238602     2.10000
Zr178      Zr  0.96233463  0.10138730  0.54083727     1.78800
O179        O  0.20091655  0.10000344  0.50691805    -0.92500
O180        O  0.87446233  0.08759535  0.56235664    -0.40300
O181        O  0.04663664  0.09581373  0.57082263    -0.76900
O182        O  0.97759882  0.03259240  0.58096618    -0.95600
O183        O  0.05186678  0.96249799  0.56057387    -0.88900
O184        O  0.12642149  0.03126831  0.55166007    -0.91800
C185        C  0.91274061  0.12252655  0.43456295     1.02000
C186        C  0.10954680  0.11227393  0.39717466     1.14900
C187        C  0.92966636  0.95319239  0.41903250     1.05700
O188        O  0.87890489  0.97799195  0.55028037    -0.93900
O189        O  0.96066761  0.93536007  0.60313296    -0.89700
O190        O  0.01016873  0.97486494  0.65241337    -0.82800
C191        C  0.97727667  0.94406459  0.64299962     1.12300
O192        O  0.14825781  0.93851906  0.43209946    -0.95900
Zr193      Zr  0.11368889  0.96785609  0.50287371     1.88900
O194        O  0.12971044  0.97285048  0.63051335    -0.72500
O195        O  0.96069937  0.88838652  0.51982968    -0.51800
O196        O  0.09026198  0.88911935  0.49029600    -0.96500
O197        O  0.20472080  0.97741271  0.49035015    -0.53700
O198        O  0.15161411  0.93220425  0.56853740    -0.73100
C199        C  0.15384941  0.94035949  0.61114914     0.99300
O200        O  0.05917540  0.04825999  0.68856405    -0.61900
O201        O  0.10317031  0.18166846  0.50670473    -0.56700
O202        O  0.10987372  0.09133216  0.64045918    -0.93400
O203        O  0.14229383  0.13097101  0.58177749    -0.91800
O204        O  0.97265872  0.18307392  0.54122222    -0.92100
O205        O  0.94484382  0.13640017  0.61391755    -0.90900
C206        C  0.13615819  0.12394302  0.62407023     1.18100
H207        H  0.02012102  0.13494874  0.46630080     0.34100
H208        H  0.95355704  0.03053263  0.60540815     0.44900
H209        H  0.16013106  0.03180557  0.56474663     0.38500
H210        H  0.02608197  0.94838599  0.45028421     0.34900
H211        H  0.85848564  0.11786271  0.56304775     0.26700
H212        H  0.98948003  0.87556907  0.53716442     0.32700
H213        H  0.11361540  0.87156940  0.50971206     0.38600
H214        H  0.93783725  0.19523105  0.53749979     0.33000
H215        H  0.13883309  0.19169915  0.50339897     0.31900
H216        H  0.20941621  0.12870298  0.49182869     0.33600
H217        H  0.22117814  0.95232195  0.50678076     0.32600
H218        H  0.97402025  0.12769987  0.63324000     0.36500
H219        H  0.02267387  0.05357779  0.69463584     0.29300
H220        H  0.99345258  0.03278853  0.33875873     0.33500
H221        H  0.16798454  0.91124733  0.44021872     0.36400
H222        H  0.08744710  0.18769043  0.47690097     0.29000
H223        H  0.06804567  0.02086309  0.70583935     0.41800
H224        H  0.86268329  0.94976629  0.53937673     0.31900
H225        H  0.85900294  0.07242541  0.53570506     0.39500
H226        H  0.21463227  0.00485590  0.50748777     0.31400
H227        H  0.93001110  0.87969376  0.53692534     0.31400
H228        H  0.03547026  0.99710440  0.35135323     0.31700
C229        C  0.71835110  0.23924901  0.26462911     0.80900
N230        N  0.75294623  0.21508341  0.28860395    -0.77400
C231        C  0.77122257  0.23048577  0.32884452     0.83300
N232        N  0.75480129  0.27113643  0.34463545    -0.77400
C233        C  0.72033734  0.29606351  0.32117547     0.83400
N234        N  0.70156188  0.27956253  0.28131364    -0.79100
C235        C  0.20983721  0.33840444  0.77278748     0.80900
N236        N  0.19482836  0.29686654  0.75789262    -0.77400
C237        C  0.21846074  0.27692985  0.72198520     0.83300
N238        N  0.25718721  0.29925338  0.70151351    -0.77400
C239        C  0.27277945  0.34058131  0.71622546     0.83400
N240        N  0.24850343  0.35990119  0.75172368    -0.79100
C241        C  0.38643982  0.72007238  0.25557517     0.80900
N242        N  0.33737443  0.70796554  0.24746496    -0.77400
C243        C  0.31187367  0.72359172  0.21081713     0.83300
N244        N  0.33606464  0.75176699  0.18236659    -0.77400
C245        C  0.38485186  0.76454135  0.18989736     0.83400
N246        N  0.41037668  0.74822498  0.22642296    -0.80300
Zr247      Zr  0.51937291  0.52626350  0.61523659     2.17500
O248        O  0.53620621  0.54219035  0.69504937    -0.50700
O249        O  0.45347682  0.47221915  0.63758441    -0.73900
O250        O  0.46553115  0.58610443  0.64756994    -0.80600
O251        O  0.63271078  0.44508114  0.60960320    -0.82400
O252        O  0.43462674  0.62782445  0.58955285    -0.78000
O253        O  0.57794786  0.47952079  0.65811689    -0.89700
O254        O  0.41933728  0.44099787  0.57421358    -0.75600
O255        O  0.45487223  0.53450477  0.55928494    -0.85100
O256        O  0.52645611  0.46253524  0.56597462    -0.84800
O257        O  0.53932617  0.59603338  0.57793745    -0.71600
O258        O  0.60380432  0.52933749  0.58388705    -0.83700
Zr259      Zr  0.56309201  0.54224207  0.43854739     2.26400
Zr260      Zr  0.47481277  0.60283067  0.52075473     2.06300
Zr261      Zr  0.60933855  0.46588868  0.53370316     2.10000
Zr262      Zr  0.46264268  0.47136515  0.50956460     1.78800
O263        O  0.70099822  0.45611642  0.54108618    -0.92500
O264        O  0.37362853  0.48885589  0.49502808    -0.40300
O265        O  0.54538745  0.47295593  0.47675904    -0.76900
O266        O  0.47905621  0.53984198  0.46983256    -0.95600
O267        O  0.55738057  0.60571094  0.48802341    -0.88900
O268        O  0.62822384  0.53369921  0.49420749    -0.91800
C269        C  0.42244705  0.44515713  0.61724041     1.02000
C270        C  0.61576523  0.45350016  0.64931449     1.14900
C271        C  0.43804311  0.61819792  0.63154681     1.05700
O272        O  0.38395761  0.60041513  0.50525004    -0.93900
O273        O  0.46195929  0.63608320  0.44716078    -0.89700
O274        O  0.51354210  0.59920499  0.39780078    -0.82800
C275        C  0.47959997  0.62912304  0.40735119     1.12300
O276        O  0.65990929  0.62360855  0.61417989    -0.95900
Zr277      Zr  0.62177731  0.59710158  0.54352015     1.88900
O278        O  0.63022750  0.59270986  0.41361349    -0.72500
O279        O  0.48087278  0.68478356  0.52672556    -0.51800
O280        O  0.60955172  0.67806201  0.55360769    -0.96500
O281        O  0.71281208  0.58214604  0.55004173    -0.53700
O282        O  0.65829490  0.62953657  0.47626890    -0.73100
C283        C  0.65766141  0.62291598  0.43339199     0.99300
O284        O  0.53754771  0.51546101  0.36366398    -0.61900
O285        O  0.59262419  0.38513219  0.53692387    -0.56700
O286        O  0.61257045  0.48018573  0.40540207    -0.93400
O287        O  0.64283477  0.43718179  0.46310884    -0.91800
O288        O  0.47043707  0.38971111  0.50182353    -0.92100
O289        O  0.43416667  0.44200283  0.43667872    -0.90900
C290        C  0.63794781  0.44649772  0.42106958     1.18100
H291        H  0.52239194  0.43464063  0.58233264     0.34100
H292        H  0.45396788  0.54301342  0.44615494     0.44900
H293        H  0.66121772  0.53187562  0.48008212     0.38500
H294        H  0.53753080  0.62101954  0.59902616     0.34900
H295        H  0.35546111  0.46007905  0.49998035     0.26700
H296        H  0.44530352  0.69544137  0.52917410     0.32700
H297        H  0.59626699  0.68861157  0.52417081     0.38600
H298        H  0.47646285  0.37852292  0.53281829     0.33000
H299        H  0.57972896  0.37701879  0.50643923     0.31900
H300        H  0.71594190  0.47372466  0.51617637     0.33600
H301        H  0.72435688  0.57386571  0.51927556     0.32600
H302        H  0.46061028  0.45179029  0.41518692     0.36500
H303        H  0.49994352  0.51700417  0.36345904     0.29300
H304        H  0.50350349  0.53756255  0.71078957     0.33500
H305        H  0.68436652  0.64739665  0.60556452     0.36400
H306        H  0.62670007  0.37103847  0.53859399     0.29000
H307        H  0.54856547  0.53907977  0.34238040     0.41800
H308        H  0.37261665  0.63217458  0.50808236     0.31900
H309        H  0.36325512  0.50836281  0.52070618     0.39500
H310        H  0.71520097  0.55377604  0.56734893     0.31400
H311        H  0.49599926  0.69086994  0.55686977     0.31400
H312        H  0.54299295  0.57500215  0.69735056     0.31700
C313        C  0.40882846  0.67519703  0.37325599     0.24300
C314        C  0.45809110  0.65658237  0.36983219    -0.23800
C315        C  0.48543600  0.66311254  0.32951737     0.19200
C316        C  0.46317258  0.68566936  0.29290024     0.24200
C317        C  0.41299348  0.70176635  0.29568666    -0.23800
C318        C  0.38660902  0.69730511  0.33657550     0.19100
F319        F  0.33884683  0.71417976  0.34096591    -0.13700
F320        F  0.38096671  0.67047675  0.41143661    -0.16100
F321        F  0.48984345  0.68974965  0.25399440    -0.16100
F322        F  0.53366264  0.64736338  0.32530151    -0.13700
C323        C  0.32897319  0.35260060  0.64853897     0.24300
C324        C  0.31400333  0.36550844  0.69243290    -0.23800
C325        C  0.33789467  0.40340096  0.71265342     0.19200
C326        C  0.37412943  0.42853634  0.68898440     0.24200
C327        C  0.38744533  0.41660163  0.64442953    -0.23800
C328        C  0.36525096  0.37753320  0.62507016     0.19100
F329        F  0.37847741  0.36311674  0.58304214    -0.13700
F330        F  0.30750043  0.31651002  0.62730428    -0.16100
F331        F  0.39493831  0.46539692  0.70938807    -0.16100
F332        F  0.32618964  0.41655400  0.75542262    -0.13700
C333        C  0.65113474  0.35394789  0.33337144     0.24300
C334        C  0.70147217  0.33934831  0.34091913    -0.23800
C335        C  0.73246140  0.36458162  0.37086945     0.19200
C336        C  0.71250564  0.40122415  0.39514958     0.24200
C337        C  0.66163321  0.41430274  0.38912172    -0.23800
C338        C  0.63152423  0.39119339  0.35717817     0.19100
F339        F  0.58176985  0.40223908  0.35191055    -0.13700
F340        F  0.61960789  0.33029105  0.30553861    -0.16100
F341        F  0.74248392  0.42315860  0.42569806    -0.16100
F342        F  0.78193270  0.35324453  0.37749158    -0.13700
C343        C  0.20914938  0.17316367  0.64582733     0.24300
C344        C  0.16012009  0.15718711  0.65510549    -0.23800
C345        C  0.13229618  0.17752235  0.69022424     0.19200
C346        C  0.15200329  0.21506127  0.71378724     0.24200
C347        C  0.20009246  0.23300406  0.70256308    -0.23800
C348        C  0.22917013  0.21010287  0.66953593     0.19100
F349        F  0.27685421  0.22388224  0.65912047    -0.13700
F350        F  0.23737836  0.15362954  0.61267342    -0.16100
F351        F  0.12268254  0.23500892  0.74587105    -0.16100
F352        F  0.08442296  0.16328821  0.69938925    -0.13700
C353        C  0.84988993  0.13045722  0.37061639     0.24300
C354        C  0.87627778  0.14954765  0.40749356    -0.23800
C355        C  0.86765010  0.19515926  0.41857991     0.19200
C356        C  0.83370665  0.22127895  0.39331252     0.24200
C357        C  0.80740273  0.20252176  0.35594404    -0.23800
C358        C  0.81574173  0.15648888  0.34523547     0.19100
F359        F  0.79015692  0.13605758  0.31076141    -0.13700
F360        F  0.85603160  0.08615010  0.35984755    -0.16100
F361        F  0.82739015  0.26521424  0.40540509    -0.16100
F362        F  0.89340157  0.21506941  0.45326285    -0.13700
C363        C  0.24065741  0.84347239  0.64745566     0.24300
C364        C  0.25000634  0.85375809  0.69334075    -0.23800
C365        C  0.22545465  0.89174225  0.71238923     0.19200
C366        C  0.19422919  0.91949859  0.68605003     0.24200
C367        C  0.18622816  0.91013508  0.63970918    -0.23800
C368        C  0.20940801  0.87118873  0.62107400     0.19100
F369        F  0.20243833  0.85969909  0.57696000    -0.13700
F370        F  0.26291904  0.80724312  0.62728344    -0.16100
F371        F  0.17252696  0.95601461  0.70622321    -0.16100
F372        F  0.23151918  0.90244798  0.75678247    -0.13700
C373        C  0.36050356  0.66273478  0.64996358     0.24300
C374        C  0.40911986  0.64776625  0.66270539    -0.23800
C375        C  0.43192994  0.66624535  0.70168177     0.19200
C376        C  0.40841887  0.70192344  0.72511465     0.24200
C377        C  0.36156215  0.71983218  0.70982552    -0.23800
C378        C  0.33674652  0.69790680  0.67344072     0.19100
F379        F  0.28984233  0.71109529  0.65952905    -0.13700
F380        F  0.33651114  0.64411183  0.61359422    -0.16100
F381        F  0.43305769  0.72018909  0.76127047    -0.16100
F382        F  0.47872949  0.65222901  0.71509986    -0.13700
C383        C  0.21162073  0.15032251  0.31715749     0.24300
C384        C  0.18363718  0.17697259  0.28653822    -0.23800
C385        C  0.13066582  0.18151977  0.29282423     0.19200
C386        C  0.10651370  0.15970380  0.32839035     0.24200
C387        C  0.13465329  0.13339600  0.35861501    -0.23800
C388        C  0.18736289  0.12911253  0.35300800     0.19100
F389        F  0.21544527  0.10409348  0.38219288    -0.13700
F390        F  0.26271242  0.14544487  0.31334650    -0.16100
F391        F  0.05582632  0.16580501  0.33444181    -0.16100
F392        F  0.10186143  0.20710713  0.26476927    -0.13700
C393        C  0.39817417  0.86498014  0.11355150     0.24300
C394        C  0.45032152  0.86479939  0.10424388    -0.23800
C395        C  0.48115288  0.83009061  0.12125865     0.19200
C396        C  0.46019891  0.79702491  0.14918982     0.24200
C397        C  0.40801699  0.79799766  0.15956792    -0.23800
C398        C  0.37715747  0.83190053  0.14070638     0.19100
F399        F  0.32680976  0.83450189  0.15022238    -0.13700
F400        F  0.36756800  0.89788582  0.09687343    -0.16100
F401        F  0.49080438  0.76425720  0.16601638    -0.16100
F402        F  0.53180644  0.82954858  0.11269161    -0.13700
C403        C  0.70959706  0.17190529  0.15556963     0.24300
C404        C  0.65679392  0.16979977  0.14863386    -0.23800
C405        C  0.62463616  0.19487557  0.17728464     0.19200
C406        C  0.64476373  0.21961820  0.21378294     0.24200
C407        C  0.69743042  0.21974519  0.22217025    -0.23800
C408        C  0.72973049  0.19677946  0.19190952     0.19100
F409        F  0.78090577  0.19797776  0.19793405    -0.13700
F410        F  0.74165878  0.14950435  0.12738100    -0.16100
F411        F  0.61244264  0.24068559  0.24272215    -0.16100
F412        F  0.57339550  0.19278090  0.17188411    -0.13700
C413        C  0.44383109  0.86165704  0.86743216     0.24300
C414        C  0.41816216  0.89738425  0.88908024    -0.23800
C415        C  0.36646075  0.90452954  0.87917996     0.19200
C416        C  0.34186773  0.87850967  0.84618200     0.24200
C417        C  0.36845255  0.84488278  0.82202155    -0.23800
C418        C  0.41927608  0.83567177  0.83417107     0.19100
F419        F  0.44640571  0.80341075  0.81212767    -0.13700
F420        F  0.49372317  0.85371214  0.87625470    -0.16100
F421        F  0.29200397  0.88673467  0.83757000    -0.16100
F422        F  0.33968826  0.93717482  0.90110960    -0.13700
C423        C  0.35866165  0.16005275  0.20782272     0.24300
C424        C  0.33268612  0.19583701  0.18676895    -0.23800
C425        C  0.35432283  0.21515549  0.14779538     0.19200
C426        C  0.39710081  0.19585794  0.12769450     0.24200
C427        C  0.41924720  0.15687289  0.14595151    -0.23800
C428        C  0.40144231  0.14080933  0.18758700     0.19100
F429        F  0.42410687  0.10501824  0.20779229    -0.13700
F430        F  0.34166765  0.14209413  0.24696644    -0.16100
F431        F  0.41392930  0.21320948  0.08817885    -0.16100
F432        F  0.33264363  0.25115062  0.12712837    -0.13700
C433        C  0.66051102  0.24054177  0.85320806     0.24300
C434        C  0.68624155  0.27403347  0.87795417    -0.23800
C435        C  0.68583183  0.27329727  0.92543872     0.19200
C436        C  0.66026408  0.23892373  0.94791613     0.24200
C437        C  0.63577560  0.20463378  0.92298037    -0.23800
C438        C  0.63548636  0.20609030  0.87553076     0.19100
F439        F  0.61108022  0.17391768  0.85070079    -0.13700
F440        F  0.66138203  0.24012076  0.80731848    -0.16100
F441        F  0.66121833  0.23813899  0.99379990    -0.16100
F442        F  0.70990975  0.30590897  0.94994562    -0.13700
C443        C  0.63826385  0.39387216  0.75988841     0.24300
C444        C  0.69095753  0.38594527  0.75826921    -0.23800
C445        C  0.71892907  0.40125413  0.72115225     0.19200
C446        C  0.69450836  0.42371241  0.68594168     0.24200
C447        C  0.64172752  0.43139909  0.68737694    -0.23800
C448        C  0.61389774  0.41658501  0.72484442     0.19100
F449        F  0.56286647  0.42305309  0.72709742    -0.13700
F450        F  0.61037483  0.38043765  0.79585761    -0.16100
F451        F  0.72268104  0.43859118  0.65075536    -0.16100
F452        F  0.76972076  0.39358235  0.71841108    -0.13700
C453        C  0.24216135  0.66625940  0.21776883     0.24300
C454        C  0.26033706  0.70657644  0.19896149    -0.23800
C455        C  0.23119486  0.72746612  0.16481253     0.19200
C456        C  0.18905142  0.70551286  0.14586477     0.24200
C457        C  0.17499689  0.66240993  0.16091340    -0.23800
C458        C  0.20001403  0.64445998  0.19895337     0.19100
F459        F  0.18544880  0.60437878  0.21663875    -0.13700
F460        F  0.26703162  0.64593531  0.25236149    -0.16100
F461        F  0.16469507  0.72504329  0.11051496    -0.16100
F462        F  0.24465467  0.76825133  0.14810415    -0.13700
C463        C  0.17269936  0.33968562  0.85101153     0.24300
C464        C  0.18358110  0.36175043  0.81030261    -0.23800
C465        C  0.17258347  0.40793658  0.80646760     0.19200
C466        C  0.15319371  0.43215682  0.84308829     0.24200
C467        C  0.14487482  0.41093197  0.88482043    -0.23800
C468        C  0.15355874  0.36413061  0.88811672     0.19100
F469        F  0.14564642  0.34244389  0.92768098    -0.13700
F470        F  0.18314230  0.29509160  0.85563309    -0.16100
F471        F  0.14206266  0.47652068  0.83740059    -0.16100
F472        F  0.18054682  0.42979143  0.76696381    -0.13700
C473        C  0.11207940  0.32945816  0.13429660     0.24300
C474        C  0.14153080  0.36766495  0.12461957    -0.23800
C475        C  0.19277533  0.36912462  0.13776534     0.19200
C476        C  0.21464669  0.33273888  0.15985080     0.24200
C477        C  0.18526460  0.29474440  0.17037937    -0.23800
C478        C  0.13364601  0.29339327  0.15783458     0.19100
F479        F  0.10456371  0.25688310  0.16735341    -0.13700
F480        F  0.06233877  0.32760600  0.12196738    -0.16100
F481        F  0.26449327  0.33508310  0.17176750    -0.16100
F482        F  0.22200170  0.40562440  0.12847891    -0.13700
C483        C  0.90335888  0.42674218  0.86206681     0.24300
C484        C  0.91959368  0.41284038  0.90504774    -0.23800
C485        C  0.89677379  0.37510590  0.92485331     0.19200
C486        C  0.85529520  0.35428845  0.90405914     0.24200
C487        C  0.83568832  0.37089912  0.86291399    -0.23800
C488        C  0.86196542  0.40589516  0.84104767     0.19100
F489        F  0.84655580  0.42155743  0.80023082    -0.13700
F490        F  0.92625218  0.46187788  0.84116126    -0.16100
F491        F  0.83280742  0.31958283  0.92596032    -0.16100
F492        F  0.91156292  0.36063700  0.96630675    -0.13700
C493        C  0.86914466  0.66433672  0.16922877     0.24300
C494        C  0.92072839  0.67144186  0.15979263    -0.23800
C495        C  0.94671587  0.70689835  0.18183560     0.19200
C496        C  0.92252650  0.73247275  0.21540428     0.24200
C497        C  0.87161791  0.72352629  0.22672135    -0.23800
C498        C  0.84468245  0.69050071  0.20183093     0.19100
F499        F  0.79464785  0.68274883  0.20962230    -0.13700
F500        F  0.84241742  0.63151871  0.14732917    -0.16100
F501        F  0.95000176  0.76380553  0.23865389    -0.16100
F502        F  0.99654427  0.71482207  0.17314825    -0.13700
C503        C  0.83863916  0.86199945  0.38303868     0.24300
C504        C  0.86023892  0.84614574  0.34226909    -0.23800
C505        C  0.90047578  0.87121701  0.32331804     0.19200
C506        C  0.92072108  0.90885137  0.34633454     0.24200
C507        C  0.90143695  0.92188717  0.38878160    -0.23800
C508        C  0.85877244  0.89926967  0.40566526     0.19100
F509        F  0.83750855  0.91204842  0.44553500    -0.13700
F510        F  0.79903523  0.84057486  0.40270225    -0.16100
F511        F  0.96135623  0.93045883  0.32850825    -0.16100
F512        F  0.92195374  0.85841398  0.28360216    -0.13700
C513        C  0.71782195  0.68860721  0.42603692     0.24300
C514        C  0.69062656  0.65269748  0.40551025    -0.23800
C515        C  0.69520369  0.64633257  0.35837153     0.19200
C516        C  0.72640118  0.67464211  0.33285782     0.24200
C517        C  0.75444794  0.70960578  0.35381132    -0.23800
C518        C  0.74938666  0.71630230  0.40066449     0.19100
F519        F  0.77637105  0.74879949  0.42271469    -0.13700
F520        F  0.71452921  0.69722808  0.47107542    -0.16100
F521        F  0.72872627  0.66788479  0.28747784    -0.16100
F522        F  0.66993169  0.61252271  0.33667440    -0.13700
C523        C  0.87309930  0.73614490  0.90430010     0.24300
C524        C  0.90417990  0.76865181  0.88365414    -0.23800
C525        C  0.95672793  0.76869407  0.89294299     0.19200
C526        C  0.97767823  0.73667116  0.92221510     0.24200
C527        C  0.94650033  0.70381011  0.94175850    -0.23800
C528        C  0.89411908  0.70408555  0.93293817     0.19100
F529        F  0.86328079  0.67271031  0.95173856    -0.13700
F530        F  0.82242431  0.73420381  0.89558695    -0.16100
F531        F  0.02859999  0.73646268  0.92984690    -0.16100
F532        F  0.98771638  0.79979253  0.87401131    -0.13700
C533        C  0.73217280  0.84714873  0.88641062     0.24300
C534        C  0.75876238  0.86588020  0.84975792    -0.23800
C535        C  0.73845625  0.90447426  0.82872225     0.19200
C536        C  0.69617724  0.92641278  0.84696128     0.24200
C537        C  0.67340315  0.91049539  0.88668303    -0.23800
C538        C  0.69014548  0.86929332  0.90472799     0.19100
F539        F  0.66844623  0.85186380  0.94223566    -0.13700
F540        F  0.74799339  0.80843404  0.90627097    -0.16100
F541        F  0.67876046  0.96435855  0.82663150    -0.16100
F542        F  0.76079848  0.92268617  0.79186803    -0.13700
C543        C  0.88243729  0.87892562  0.71253047     0.24300
C544        C  0.90948258  0.87163540  0.75282561    -0.23800
C545        C  0.96011978  0.88642516  0.75633451     0.19200
C546        C  0.98280692  0.90943579  0.72045917     0.24200
C547        C  0.95524069  0.91762539  0.68040727    -0.23800
C548        C  0.90509264  0.90126735  0.67662411     0.19100
F549        F  0.87692309  0.90843901  0.63877170    -0.13700
F550        F  0.83359185  0.86470872  0.70797632    -0.16100
F551        F  0.03161883  0.92368020  0.72494602    -0.16100
F552        F  0.98674546  0.88065444  0.79527156    -0.13700
loop_ 
_geom_bond_atom_site_label_1 
_geom_bond_atom_site_label_2 
_geom_bond_distance 
_geom_bond_site_symmetry_2 
_ccdc_geom_bond_type 
C1            N2   1.358       .  A
C1            N6   1.361       .  A
C1          C544   1.475       .  S
N2            C3   1.355       .  A
C3            N4   1.353       .  A
C3          C534   1.486       .  S
N4            C5   1.355       .  A
C5            N6   1.361       .  A
C5          C524   1.478       .  S
C7            N8   1.363       .  A
C7           N12   1.357       .  A
C7          C497   1.479       .  S
N8            C9   1.362       .  A
C9           N10   1.359       .  A
C9          C504   1.495       .  S
N10          C11   1.355       .  A
C11          N12   1.351       .  A
C11         C517   1.486       .  S
Zr13         O14   2.439       .  S
Zr13         O15   2.439   1_554  S
Zr13         O16   2.425   1_454  S
Zr13         O19   2.422       .  S
Zr13         O21   2.375   1_554  S
Zr13         O22   2.385       .  S
Zr13         O23   2.405   1_455  S
Zr13         O24   2.403       .  S
O14          H70   0.990       .  S
O14          H78   0.990   1_455  S
O15          C35   1.284       .  A
O16          C37   1.282       .  A
O17         Zr27   2.406       .  S
O17          C36   1.280       .  A
O18         Zr26   2.406       .  S
O18          C37   1.280       .  A
O19          C36   1.282       .  A
O20         Zr28   2.418       .  S
O20          C35   1.282       .  A
O21         Zr26   2.381   1_455  S
O21         Zr28   2.373       .  S
O22         Zr27   2.391       .  S
O22         Zr28   2.373   1_554  S
O22          H57   0.966       .  S
O23         Zr26   2.390   1_554  S
O23         Zr43   2.392       .  S
O23          H60   0.966       .  S
O24         Zr27   2.385       .  S
O24         Zr43   2.392   1_455  S
Zr25         O50   2.440       .  S
Zr25         O44   2.420   1_455  S
Zr25         O52   2.434       .  S
Zr25         O40   2.446   1_554  S
Zr25         O31   2.402       .  S
Zr25         O32   2.402   1_554  S
Zr25         O33   2.381   1_455  S
Zr25         O34   2.386       .  S
Zr26         O45   2.439       .  S
Zr26         O38   2.436       .  S
Zr26         O39   2.396       .  S
Zr26         O32   2.399   1_655  S
Zr26         O33   2.383   1_556  S
Zr27         O29   2.438       .  S
Zr27         O51   2.437       .  S
Zr27         O53   2.412       .  S
Zr27         O31   2.390       .  S
Zr27         O34   2.384       .  S
Zr28         O54   2.435       .  S
Zr28         O55   2.435       .  S
Zr28         O30   2.436       .  S
Zr28         O31   2.390   1_556  S
Zr28         O32   2.393       .  S
O29          H66   0.990       .  S
O30          H61   0.990       .  S
O30          H75   0.990       .  S
O32          H58   0.966       .  S
O33         Zr43   2.378       .  S
O34         Zr43   2.376   1_455  S
O34          H59   0.965       .  S
C35         C467   1.483       .  S
C36         C474   1.462       .  S
C37         C484   1.469       .  S
O38          H74   0.990       .  S
O39          C41   1.278       .  A
O40          C41   1.284   1_455  A
C41         C527   1.466       .  S
O42         Zr43   2.439       .  S
O42          H71   0.990       .  S
Zr43         O46   2.437       .  S
Zr43         O47   2.440       .  S
Zr43         O48   2.416       .  S
O44          C49   1.281       .  A
O45          H62   0.990       .  S
O45          H77   0.990       .  S
O46          H63   0.990       .  S
O47          H67   0.990       .  S
O47          H76   0.990       .  S
O48          C49   1.282       .  A
C49         C494   1.473       .  S
O50          H69   0.990       .  S
O50          H73   0.991       .  S
O51          H65   0.990       .  S
O51          H72   0.990       .  S
O52          C56   1.285       .  A
O53          C56   1.281       .  A
O54          H64   0.990   1_556  S
O55          H68   0.990       .  S
C56         C457   1.482       .  S
C79          N80   1.357       .  A
C79          N84   1.353       .  A
C79         C444   1.470       .  S
N80          C81   1.359       .  A
C81          N82   1.356       .  A
C81         C487   1.482       .  S
N82          C83   1.352       .  A
C83          N84   1.352       .  A
C83         C434   1.460       .  S
Zr85         O86   2.438       .  S
Zr85         O87   2.427       .  S
Zr85         O88   2.435       .  S
Zr85         O91   2.422   1_554  S
Zr85         O93   2.377       .  S
Zr85         O94   2.383       .  S
Zr85         O95   2.403       .  S
Zr85         O96   2.403   1_554  S
O86         H142   0.990       .  S
O86         H150   0.990       .  S
O87         C107   1.283       .  A
O88         C109   1.285       .  A
O89         Zr99   2.406       .  S
O89         C108   1.281       .  A
O90         Zr98   2.414       .  S
O90         C109   1.282       .  A
O91         C108   1.283       .  A
O92        Zr100   2.437       .  S
O92         C107   1.285       .  A
O93         Zr98   2.383       .  S
O93        Zr100   2.377       .  S
O94         Zr99   2.388   1_554  S
O94        Zr100   2.365       .  S
O94         H129   0.964       .  S
O95         Zr98   2.392       .  S
O95        Zr115   2.392   1_554  S
O95         H132   0.965       .  S
O96         Zr99   2.390       .  S
O96        Zr115   2.392       .  S
Zr97        O122   2.439   1_556  S
Zr97        O116   2.434       .  S
Zr97        O124   2.432       .  S
Zr97        O112   2.429   1_556  S
Zr97        O103   2.401       .  S
Zr97        O104   2.404   1_556  S
Zr97        O105   2.380   1_556  S
Zr97        O106   2.383   1_565  S
Zr98        O117   2.437       .  S
Zr98        O110   2.435       .  S
Zr98        O111   2.407   1_545  S
Zr98        O104   2.386   1_545  S
Zr98        O105   2.386   1_545  S
Zr99        O101   2.436       .  S
Zr99        O123   2.438       .  S
Zr99        O125   2.414   1_545  S
Zr99        O103   2.386   1_545  S
Zr99        O106   2.385       .  S
Zr100       O126   2.435       .  S
Zr100       O127   2.435   1_545  S
Zr100       O102   2.435       .  S
Zr100       O103   2.396   1_544  S
Zr100       O104   2.396   1_545  S
O101        H138   0.990       .  S
O102        H133   0.990       .  S
O102        H147   0.990       .  S
O104        H130   0.965       .  S
O105       Zr115   2.377   1_564  S
O106       Zr115   2.378       .  S
O106        H131   0.966   1_545  S
C107        C404   1.479       .  S
C108        C437   1.464       .  S
C109        C427   1.478       .  S
O110        H146   0.990       .  S
O111        C113   1.280       .  A
O112        C113   1.283       .  A
C113        C394   1.465       .  S
O114       Zr115   2.439       .  S
O114        H143   0.990       .  S
Zr115       O118   2.438       .  S
Zr115       O119   2.439       .  S
Zr115       O120   2.418   1_545  S
O116        C121   1.284       .  A
O117        H134   0.990   1_545  S
O117        H149   0.990       .  S
O118        H135   0.990   1_545  S
O119        H139   0.990       .  S
O119        H148   0.990       .  S
O120        C121   1.282       .  A
C121        C414   1.479       .  S
O122        H141   0.990   1_554  S
O122        H145   0.990       .  S
O123        H137   0.990       .  S
O123        H144   0.990       .  S
O124        C128   1.283       .  A
O125        C128   1.282       .  A
O126        H136   0.990       .  S
O127        H140   0.990       .  S
C128        C537   1.480       .  S
C151        N152   1.359       .  A
C151        N156   1.361       .  A
C151        C384   1.485       .  S
N152        C153   1.354       .  A
C153        N154   1.352       .  A
C153        C477   1.466       .  S
N154        C155   1.352       .  A
C155        N156   1.359       .  A
C155        C424   1.488       .  S
C157        N158   1.358       .  A
C157        N162   1.360       .  A
C157        C417   1.485       .  S
N158        C159   1.356       .  A
C159        N160   1.360       .  A
C159        C364   1.496       .  S
N160        C161   1.363       .  A
C161        N162   1.361       .  A
C161        C377   1.495       .  S
Zr163       O164   2.441       .  S
Zr163       O165   2.447   1_455  S
Zr163       O166   2.446   1_445  S
Zr163       O169   2.432       .  S
Zr163       O171   2.380   1_455  S
Zr163       O172   2.381       .  S
Zr163       O173   2.408   1_545  S
Zr163       O174   2.410       .  S
O164        H220   0.991   1_455  S
O164        H228   0.990   1_545  S
O165        C185   1.286       .  A
O166        C187   1.285       .  A
O167       Zr177   2.407       .  S
O167        C186   1.279       .  A
O168       Zr176   2.408       .  S
O168        C187   1.281       .  A
O169        C186   1.284       .  A
O170       Zr178   2.423       .  S
O170        C185   1.282       .  A
O171       Zr176   2.387   1_545  S
O171       Zr178   2.377       .  S
O172       Zr177   2.395       .  S
O172       Zr178   2.379   1_455  S
O172        H207   0.966       .  S
O173       Zr176   2.397   1_455  S
O173       Zr193   2.395       .  S
O173        H210   0.965       .  S
O174       Zr177   2.387       .  S
O174       Zr193   2.399   1_545  S
Zr175       O200   2.439       .  S
Zr175       O194   2.439   1_545  S
Zr175       O202   2.455       .  S
Zr175       O190   2.448   1_545  S
Zr175       O181   2.399       .  S
Zr175       O182   2.412   1_455  S
Zr175       O183   2.382   1_545  S
Zr175       O184   2.383       .  S
Zr176       O195   2.438       .  S
Zr176       O188   2.434       .  S
Zr176       O189   2.409       .  S
Zr176       O182   2.396   1_565  S
Zr176       O183   2.391   1_655  S
Zr177       O179   2.436       .  S
Zr177       O201   2.440       .  S
Zr177       O203   2.411       .  S
Zr177       O181   2.385       .  S
Zr177       O184   2.391       .  S
Zr178       O204   2.436       .  S
Zr178       O205   2.436       .  S
Zr178       O180   2.437       .  S
Zr178       O181   2.391   1_655  S
Zr178       O182   2.401       .  S
O179        H216   0.990       .  S
O180        H211   0.990       .  S
O180        H225   0.990       .  S
O182        H208   0.966       .  S
O183       Zr193   2.370       .  S
O184       Zr193   2.382   1_545  S
O184        H209   0.966       .  S
C185        C354   1.485       .  S
C186        C387   1.466       .  S
C187        C507   1.481       .  S
O188        H224   0.990       .  S
O189        C191   1.280       .  A
O190        C191   1.286   1_455  A
C191        C547   1.482       .  S
O192       Zr193   2.440       .  S
O192        H221   0.991       .  S
Zr193       O196   2.438       .  S
Zr193       O197   2.443       .  S
Zr193       O198   2.430       .  S
O194        C199   1.285       .  A
O195        H212   0.990       .  S
O195        H227   0.990       .  S
O196        H213   0.990       .  S
O197        H217   0.990       .  S
O197        H226   0.989   1_565  S
O198        C199   1.283       .  A
C199        C367   1.499       .  S
O200        H219   0.990       .  S
O200        H223   0.990       .  S
O201        H215   0.990       .  S
O201        H222   0.990       .  S
O202        C206   1.288       .  A
O203        C206   1.282       .  A
O204        H214   0.990       .  S
O205        H218   0.990       .  S
C206        C344   1.480       .  S
C229        N230   1.359       .  A
C229        N234   1.363       .  A
C229        C407   1.482       .  S
N230        C231   1.357       .  A
C231        N232   1.359       .  A
C231        C357   1.496       .  S
N232        C233   1.361       .  A
C233        N234   1.363       .  A
C233        C334   1.490       .  S
C235        N236   1.362       .  A
C235        N240   1.358       .  A
C235        C464   1.477       .  S
N236        C237   1.364       .  A
C237        N238   1.363       .  A
C237        C347   1.498       .  S
N238        C239   1.359       .  A
C239        N240   1.354       .  A
C239        C324   1.495       .  S
C241        N242   1.360       .  A
C241        N246   1.362       .  A
C241        C317   1.481       .  S
N242        C243   1.357       .  A
C243        N244   1.353       .  A
C243        C454   1.486       .  S
N244        C245   1.355       .  A
C245        N246   1.362       .  A
C245        C397   1.477       .  S
Zr247       O248   2.443       .  S
Zr247       O249   2.458       .  S
Zr247       O250   2.459       .  S
Zr247       O253   2.432       .  S
Zr247       O255   2.379       .  S
Zr247       O256   2.383       .  S
Zr247       O257   2.411       .  S
Zr247       O258   2.414       .  S
O248        H304   0.991       .  S
O248        H312   0.990       .  S
O249        C269   1.288       .  A
O250        C271   1.287       .  A
O251       Zr261   2.411       .  S
O251        C270   1.281       .  A
O252       Zr260   2.409       .  S
O252        C271   1.280       .  A
O253        C270   1.285       .  A
O254       Zr262   2.413       .  S
O254        C269   1.280       .  A
O255       Zr260   2.392       .  S
O255       Zr262   2.379       .  S
O256       Zr261   2.387       .  S
O256       Zr262   2.378       .  S
O256        H291   0.968       .  S
O257       Zr260   2.401       .  S
O257       Zr277   2.401       .  S
O257        H294   0.965       .  S
O258       Zr261   2.390       .  S
O258       Zr277   2.394       .  S
Zr259       O284   2.439       .  S
Zr259       O278   2.437       .  S
Zr259       O286   2.452       .  S
Zr259       O274   2.454       .  S
Zr259       O265   2.400       .  S
Zr259       O266   2.403       .  S
Zr259       O267   2.378       .  S
Zr259       O268   2.386       .  S
Zr260       O279   2.438       .  S
Zr260       O272   2.433       .  S
Zr260       O273   2.420       .  S
Zr260       O266   2.391       .  S
Zr260       O267   2.385       .  S
Zr261       O263   2.438       .  S
Zr261       O285   2.436       .  S
Zr261       O287   2.418       .  S
Zr261       O265   2.386       .  S
Zr261       O268   2.387       .  S
Zr262       O288   2.437       .  S
Zr262       O289   2.434       .  S
Zr262       O264   2.436       .  S
Zr262       O265   2.389       .  S
Zr262       O266   2.395       .  S
O263        H300   0.990       .  S
O264        H295   0.990       .  S
O264        H309   0.990       .  S
O266        H292   0.965       .  S
O267       Zr277   2.369       .  S
O268       Zr277   2.375       .  S
O268        H293   0.967       .  S
C269        C327   1.494       .  S
C270        C447   1.473       .  S
C271        C374   1.479       .  S
O272        H308   0.990       .  S
O273        C275   1.283       .  A
O274        C275   1.288       .  A
C275        C314   1.491       .  S
O276       Zr277   2.439       .  S
O276        H305   0.991       .  S
Zr277       O280   2.436       .  S
Zr277       O281   2.443       .  S
Zr277       O282   2.421       .  S
O278        C283   1.285       .  A
O279        H296   0.990       .  S
O279        H311   0.990       .  S
O280        H297   0.990       .  S
O281        H301   0.990       .  S
O281        H310   0.990       .  S
O282        C283   1.282       .  A
C283        C514   1.494       .  S
O284        H303   0.990       .  S
O284        H307   0.990       .  S
O285        H299   0.990       .  S
O285        H306   0.990       .  S
O286        C290   1.289       .  A
O287        C290   1.282       .  A
O288        H298   0.990       .  S
O289        H302   0.990       .  S
C290        C337   1.477       .  S
C313        C314   1.412       .  A
C313        C318   1.398       .  A
C313        F320   1.358       .  S
C314        C315   1.411       .  A
C315        C316   1.404       .  A
C315        F322   1.358       .  S
C316        C317   1.406       .  A
C316        F321   1.358       .  S
C317        C318   1.405       .  A
C318        F319   1.359       .  S
C323        C324   1.409       .  A
C323        C328   1.398       .  A
C323        F330   1.358       .  S
C324        C325   1.414       .  A
C325        C326   1.404       .  A
C325        F332   1.358       .  S
C326        C327   1.408       .  A
C326        F331   1.358       .  S
C327        C328   1.413       .  A
C328        F329   1.358       .  S
C333        C334   1.410       .  A
C333        C338   1.403       .  A
C333        F340   1.357       .  S
C334        C335   1.411       .  A
C335        C336   1.400       .  A
C335        F342   1.358       .  S
C336        C337   1.404       .  A
C336        F341   1.358       .  S
C337        C338   1.404       .  A
C338        F339   1.358       .  S
C343        C344   1.404       .  A
C343        C348   1.397       .  A
C343        F350   1.358       .  S
C344        C345   1.405       .  A
C345        C346   1.406       .  A
C345        F352   1.358       .  S
C346        C347   1.415       .  A
C346        F351   1.357       .  S
C347        C348   1.413       .  A
C348        F349   1.357       .  S
C353        C354   1.405       .  A
C353        C358   1.403       .  A
C353        F360   1.358       .  S
C354        C355   1.406       .  A
C355        C356   1.399       .  A
C355        F362   1.358       .  S
C356        C357   1.412       .  A
C356        F361   1.357       .  S
C357        C358   1.415       .  A
C358        F359   1.358       .  S
C363        C364   1.409       .  A
C363        C368   1.401       .  A
C363        F370   1.357       .  S
C364        C365   1.412       .  A
C365        C366   1.401       .  A
C365        F372   1.357       .  S
C366        C367   1.411       .  A
C366        F371   1.358       .  S
C367        C368   1.414       .  A
C368        F369   1.358       .  S
C373        C374   1.405       .  A
C373        C378   1.396       .  A
C373        F380   1.358       .  S
C374        C375   1.405       .  A
C375        C376   1.404       .  A
C375        F382   1.358       .  S
C376        C377   1.416       .  A
C376        F381   1.357       .  S
C377        C378   1.410       .  A
C378        F379   1.357       .  S
C383        C384   1.411       .  A
C383        C388   1.395       .  A
C383        F390   1.357       .  S
C384        C385   1.413       .  A
C385        C386   1.396       .  A
C385        F392   1.357       .  S
C386        C387   1.400       .  A
C386        F391   1.358       .  S
C387        C388   1.403       .  A
C388        F389   1.359       .  S
C393        C394   1.401       .  A
C393        C398   1.390       .  A
C393        F400   1.359       .  S
C394        C395   1.405       .  A
C395        C396   1.402       .  A
C395        F402   1.358       .  S
C396        C397   1.409       .  A
C396        F401   1.357       .  S
C397        C398   1.409       .  A
C398        F399   1.358       .  S
C403        C404   1.405       .  A
C403        C408   1.400       .  A
C403        F410   1.358       .  S
C404        C405   1.408       .  A
C405        C406   1.402       .  A
C405        F412   1.358       .  S
C406        C407   1.407       .  A
C406        F411   1.358       .  S
C407        C408   1.408       .  A
C408        F409   1.358       .  S
C413        C414   1.406       .  A
C413        C418   1.400       .  A
C413        F420   1.358       .  S
C414        C415   1.406       .  A
C415        C416   1.396       .  A
C415        F422   1.358       .  S
C416        C417   1.409       .  A
C416        F421   1.358       .  S
C417        C418   1.410       .  A
C418        F419   1.357       .  S
C423        C424   1.409       .  A
C423        C428   1.397       .  A
C423        F430   1.357       .  S
C424        C425   1.414       .  A
C425        C426   1.395       .  A
C425        F432   1.358       .  S
C426        C427   1.405       .  A
C426        F431   1.358       .  S
C427        C428   1.407       .  A
C428        F429   1.358       .  S
C433        C434   1.401       .  A
C433        C438   1.389       .  A
C433        F440   1.358       .  S
C434        C435   1.406       .  A
C435        C436   1.396       .  A
C435        F442   1.358       .  S
C436        C437   1.405       .  A
C436        F441   1.358       .  S
C437        C438   1.405       .  A
C438        F439   1.358       .  S
C443        C444   1.407       .  A
C443        C448   1.395       .  A
C443        F450   1.358       .  S
C444        C445   1.404       .  A
C445        C446   1.395       .  A
C445        F452   1.358       .  S
C446        C447   1.408       .  A
C446        F451   1.358       .  S
C447        C448   1.405       .  A
C448        F449   1.358       .  S
C453        C454   1.407       .  A
C453        C458   1.395       .  A
C453        F460   1.357       .  S
C454        C455   1.413       .  A
C455        C456   1.398       .  A
C455        F462   1.358       .  S
C456        C457   1.407       .  A
C456        F461   1.358       .  S
C457        C458   1.409       .  A
C458        F459   1.358       .  S
C463        C464   1.406       .  A
C463        C468   1.405       .  A
C463        F470   1.357       .  S
C464        C465   1.404       .  A
C465        C466   1.393       .  A
C465        F472   1.359       .  S
C466        C467   1.409       .  A
C466        F471   1.358       .  S
C467        C468   1.409       .  A
C468        F469   1.357       .  S
C473        C474   1.405       .  A
C473        C478   1.399       .  A
C473        F480   1.358       .  S
C474        C475   1.402       .  A
C475        C476   1.389       .  A
C475        F482   1.358       .  S
C476        C477   1.404       .  A
C476        F481   1.358       .  S
C477        C478   1.407       .  A
C478        F479   1.358       .  S
C483        C484   1.405       .  A
C483        C488   1.394       .  A
C483        F490   1.358       .  S
C484        C485   1.404       .  A
C485        C486   1.392       .  A
C485        F492   1.358       .  S
C486        C487   1.412       .  A
C486        F491   1.358       .  S
C487        C488   1.410       .  A
C488        F489   1.358       .  S
C493        C494   1.403       .  A
C493        C498   1.392       .  A
C493        F500   1.359       .  S
C494        C495   1.408       .  A
C495        C496   1.399       .  A
C495        F502   1.358       .  S
C496        C497   1.408       .  A
C496        F501   1.357       .  S
C497        C498   1.409       .  A
C498        F499   1.358       .  S
C503        C504   1.413       .  A
C503        C508   1.390       .  A
C503        F510   1.357       .  S
C504        C505   1.415       .  A
C505        C506   1.405       .  A
C505        F512   1.357       .  S
C506        C507   1.408       .  A
C506        F511   1.358       .  S
C507        C508   1.404       .  A
C508        F509   1.359       .  S
C513        C514   1.414       .  A
C513        C518   1.395       .  A
C513        F520   1.358       .  S
C514        C515   1.412       .  A
C515        C516   1.402       .  A
C515        F522   1.358       .  S
C516        C517   1.410       .  A
C516        F521   1.358       .  S
C517        C518   1.406       .  A
C518        F519   1.357       .  S
C523        C524   1.409       .  A
C523        C528   1.391       .  A
C523        F530   1.358       .  S
C524        C525   1.408       .  A
C525        C526   1.401       .  A
C525        F532   1.357       .  S
C526        C527   1.404       .  A
C526        F531   1.358   1_655  S
C527        C528   1.402       .  A
C528        F529   1.359       .  S
C533        C534   1.412       .  A
C533        C538   1.395       .  A
C533        F540   1.358       .  S
C534        C535   1.410       .  A
C535        C536   1.396       .  A
C535        F542   1.358       .  S
C536        C537   1.407       .  A
C536        F541   1.358       .  S
C537        C538   1.406       .  A
C538        F539   1.357       .  S
C543        C544   1.404       .  A
C543        C548   1.393       .  A
C543        F550   1.359       .  S
C544        C545   1.406       .  A
C545        C546   1.403       .  A
C545        F552   1.358       .  S
C546        C547   1.409       .  A
C546        F551   1.358   1_655  S
C547        C548   1.410       .  A
C548        F549   1.358       .  S
