geometry optimzed in LAMMPS
_audit_creation_date              2020-11-30 
_audit_creation_method            'lammps2cif' 
_symmetry_space_group_name_H-M    'P1' 
_symmetry_Int_Tables_number       1 
_symmetry_cell_setting            triclinic 
loop_ 
_symmetry_equiv_pos_as_xyz 
  x,y,z 
_cell_length_a                    53.70998885 
_cell_length_b                    43.55769982874481 
_cell_length_c                    47.451350110034824 
_cell_angle_alpha                 89.98892598535056 
_cell_angle_beta                  89.97161685158748 
_cell_angle_gamma                 89.76439635687075 
loop_ 
_atom_site_label 
_atom_site_type_symbol 
_atom_site_fract_x 
_atom_site_fract_y 
_atom_site_fract_z 
_atom_site_charge 
O1          O  0.33875937  0.91373709  0.43419933    -0.56800
C2          C  0.33985278  0.85448389  0.36829260     0.75800
O3          O  0.38331655  0.82477601  0.43819630    -0.58000
C4          C  0.34427817  0.91489384  0.46012407     0.75800
C5          C  0.30862118  0.82221286  0.45395512     0.78100
Cd6        Cd  0.34719764  0.85848423  0.42842135     1.37500
O7          O  0.33789138  0.87971692  0.38134576    -0.56800
O8          O  0.30372242  0.84478603  0.43807998    -0.55700
C9          C  0.39951465  0.84475669  0.43214179     0.78100
O10         O  0.33145385  0.81619971  0.45771454    -0.58000
O11         O  0.34445937  0.83104085  0.38314466    -0.56500
O12         O  0.35039042  0.88975629  0.47160869    -0.56500
O13         O  0.39130365  0.87063738  0.42439701    -0.55600
O14         O  0.15292072  0.65566929  0.63829816    -0.56800
C15         C  0.14457465  0.61249953  0.56217736     0.75800
O16         O  0.10074816  0.70092072  0.57924663    -0.58000
C17         C  0.14545192  0.68008731  0.65014322     0.75800
C18         C  0.17618992  0.70571611  0.56103770     0.78100
Cd19       Cd  0.13896225  0.67061101  0.59033824     1.37500
O20         O  0.14562397  0.61424829  0.58881797    -0.56800
O21         O  0.18187377  0.68688543  0.58032227    -0.55700
C22         C  0.08593365  0.67899854  0.58420379     0.78100
O23         O  0.15319388  0.70937822  0.55616520    -0.58000
O24         O  0.14147323  0.63745385  0.54902167    -0.56500
O25         O  0.13630504  0.70042838  0.63413094    -0.56500
O26         O  0.09574261  0.65399695  0.59202716    -0.55600
O27         O  0.14988743  0.37605997  0.37645455    -0.56800
C28         C  0.14204120  0.41432324  0.45096643     0.75800
O29         O  0.09880363  0.32204033  0.42859313    -0.58000
C30         C  0.14339114  0.35276269  0.36232032     0.75800
C31         C  0.17206576  0.31848689  0.45251459     0.78100
Cd32       Cd  0.13578023  0.35596700  0.42275348     1.37500
O33         O  0.14233787  0.41244160  0.42434337    -0.56800
O34         O  0.17733415  0.33159264  0.42945638    -0.55700
C35         C  0.08289288  0.34343048  0.42649283     0.78100
O36         O  0.14987152  0.32151905  0.46098782    -0.58000
O37         O  0.13920898  0.38943157  0.46423879    -0.56500
O38         O  0.13480334  0.33049537  0.37639552    -0.56500
O39         O  0.09157231  0.37006169  0.42291684    -0.55600
O40         O  0.32955837  0.15809605  0.63789482    -0.56800
C41         C  0.34389822  0.11767590  0.56519357     0.75800
O42         O  0.33122030  0.21227928  0.55614283    -0.58000
C43         C  0.33805684  0.17979955  0.65275209     0.75800
C44         C  0.39939474  0.19005864  0.58806669     0.78100
Cd45       Cd  0.34699133  0.17644747  0.59278525     1.37500
O46         O  0.34505145  0.11979552  0.59178317    -0.56800
O47         O  0.39102779  0.16305515  0.58974819    -0.55700
C48         C  0.30866027  0.21127413  0.56381406     0.78100
O49         O  0.38338309  0.21151276  0.58832247    -0.58000
O50         O  0.34361639  0.14265683  0.55162776    -0.56500
O51         O  0.35023493  0.20022602  0.63980538    -0.56500
O52         O  0.30424854  0.19561638  0.58568450    -0.55600
O53         O  0.14517517  0.41570407  0.07898918    -0.56800
C54         C  0.13841833  0.35918853  0.14827904     0.75800
O55         O  0.09406846  0.32951294  0.07574157    -0.58000
C56         C  0.13259239  0.41940490  0.05668559     0.75800
C57         C  0.16915380  0.32782449  0.05915766     0.78100
Cd58       Cd  0.13051158  0.36249976  0.08771992     1.37500
O59         O  0.13922579  0.38426991  0.13480125    -0.56800
O60         O  0.17398841  0.34610946  0.07906777    -0.55700
C61         C  0.07795306  0.34824622  0.08517408     0.78100
O62         O  0.14638431  0.32464415  0.05301554    -0.58000
O63         O  0.13451048  0.33539027  0.13360963    -0.56500
O64         O  0.11948170  0.39698629  0.04887525    -0.56500
O65         O  0.08624893  0.37261411  0.09614065    -0.55600
O66         O  0.32025967  0.14838876  0.87889729    -0.56800
C67         C  0.33136910  0.10809620  0.95384184     0.75800
O68         O  0.37316593  0.19731682  0.93508437    -0.58000
C69         C  0.32744256  0.17154869  0.86505504     0.75800
C70         C  0.29973912  0.20496986  0.95301873     0.78100
Cd71       Cd  0.33582832  0.16615494  0.92498598     1.37500
O72         O  0.32886895  0.11022522  0.92739880    -0.56800
O73         O  0.29338205  0.18404345  0.93601534    -0.55700
C74         C  0.38858903  0.17655466  0.92828894     0.78100
O75         O  0.32290296  0.20840786  0.95656189    -0.58000
O76         O  0.33545653  0.13287018  0.96692176    -0.56500
O77         O  0.33748533  0.19280018  0.87914032    -0.56500
O78         O  0.37951999  0.15122510  0.92046990    -0.55600
O79         O  0.32722603  0.87246496  0.14188244    -0.56800
C80         C  0.33138692  0.90911116  0.06368518     0.75800
O81         O  0.37382452  0.82131510  0.08152792    -0.58000
C82         C  0.33187797  0.84781601  0.15500625     0.75800
C83         C  0.29925251  0.81606546  0.06788744     0.78100
Cd84       Cd  0.33690778  0.85267384  0.09448997     1.37500
O85         O  0.33179186  0.90879093  0.09037159    -0.56800
O86         O  0.29356673  0.83928100  0.08267018    -0.55700
C87         C  0.38925148  0.84268196  0.08586423     0.78100
O88         O  0.32211707  0.80898260  0.06698562    -0.58000
O89         O  0.33272574  0.88337711  0.05143540    -0.56500
O90         O  0.33763564  0.82498670  0.13986393    -0.56500
O91         O  0.38028511  0.86798591  0.09404201    -0.55600
O92         O  0.13693831  0.62455999  0.92576746    -0.56800
C93         C  0.13730686  0.68446536  0.86279278     0.75800
O94         O  0.09022531  0.70993952  0.93669547    -0.58000
C95         C  0.12956625  0.62139311  0.95093119     0.75800
C96         C  0.16636177  0.71212949  0.95115766     0.78100
Cd97       Cd  0.12742508  0.67963270  0.92222592     1.37500
O98         O  0.14030869  0.65978622  0.87639884    -0.56800
O99         O  0.17011307  0.68712936  0.93834675    -0.55700
C100        C  0.07461117  0.69188034  0.92556946     0.78100
O101        O  0.14457263  0.72322928  0.94963330    -0.58000
O102        O  0.13065907  0.70767828  0.87701036    -0.56500
O103        O  0.12110666  0.64534270  0.96268793    -0.56500
O104        O  0.08359739  0.66885058  0.91287517    -0.55600
O105        O  0.65142433  0.87022043  0.38185432    -0.56800
C106        C  0.63913134  0.91458254  0.45651126     0.75800
O107        O  0.60174059  0.82028322  0.44048163    -0.58000
C108        C  0.64013727  0.84918899  0.36867552     0.75800
C109        C  0.67494186  0.82012409  0.45499570     0.78100
Cd110      Cd  0.63601924  0.85571397  0.42924205     1.37500
O111        O  0.63496345  0.91230894  0.43031667    -0.56800
O112        O  0.67967129  0.84097252  0.43723429    -0.55700
C113        C  0.58518599  0.84105362  0.44083004     0.78100
O114        O  0.65217847  0.81536722  0.46018123    -0.58000
O115        O  0.64248006  0.88971441  0.46975349    -0.56500
O116        O  0.62752728  0.83090905  0.38356299    -0.56500
O117        O  0.59235220  0.86823557  0.43640123    -0.55600
O118        O  0.83391582  0.65007215  0.63991668    -0.56800
C119        C  0.84171603  0.61104391  0.56177790     0.75800
O120        O  0.83092643  0.71044288  0.56119508    -0.58000
C121        C  0.83589766  0.67599137  0.65177745     0.75800
C122        C  0.89787455  0.67698157  0.59009238     0.78100
Cd123      Cd  0.84490783  0.66800412  0.59215392     1.37500
O124        O  0.83096924  0.61448919  0.58534736    -0.56800
O125        O  0.88806168  0.65466426  0.60296576    -0.55700
C126        C  0.80797701  0.70412575  0.56285427     0.78100
O127        O  0.88304313  0.69592777  0.57859433    -0.58000
O128        O  0.85356826  0.63387093  0.55241127    -0.56500
O129        O  0.84142336  0.69827597  0.63586971    -0.56500
O130        O  0.80223611  0.68176026  0.57851324    -0.55600
O131        O  0.83461746  0.38222054  0.37419694    -0.56800
C132        C  0.83956831  0.41290007  0.45092254     0.75800
O133        O  0.83200467  0.31633583  0.45261062    -0.58000
C134        C  0.83314819  0.35807734  0.35951957     0.75800
C135        C  0.89571330  0.34076295  0.41797752     0.78100
Cd136      Cd  0.84359324  0.35674404  0.41904146     1.37500
O137        O  0.82658327  0.40824781  0.42914889    -0.56800
O138        O  0.88742619  0.36555622  0.40766972    -0.55700
C139        C  0.80875704  0.31859399  0.44899893     0.78100
O140        O  0.87972428  0.32273684  0.42837102    -0.58000
O141        O  0.85433169  0.39157740  0.45795123    -0.56500
O142        O  0.83576839  0.33292864  0.37262430    -0.56500
O143        O  0.80167065  0.33757434  0.43046500    -0.55600
O144        O  0.64981445  0.15411476  0.63919719    -0.56800
C145        C  0.63974245  0.11671448  0.56122268     0.75800
O146        O  0.60272700  0.20659812  0.57926826    -0.58000
C147        C  0.64773742  0.17972284  0.65163453     0.75800
C148        C  0.67890820  0.20627696  0.56423922     0.78100
Cd149      Cd  0.63906616  0.17357264  0.59179908     1.37500
O150        O  0.64592394  0.11791132  0.58694850    -0.56800
O151        O  0.68307086  0.18355487  0.58018682    -0.55700
C152        C  0.58675110  0.18872258  0.58999325     0.78100
O153        O  0.65630898  0.21418806  0.56164053    -0.58000
O154        O  0.63339104  0.14175026  0.54976347    -0.56500
O155        O  0.64269815  0.20255687  0.63613320    -0.56500
O156        O  0.59510677  0.16428389  0.60087827    -0.55600
O157        O  0.82650335  0.38306048  0.13324874    -0.56800
C158        C  0.82974926  0.41953964  0.05764743     0.75800
O159        O  0.87437082  0.32880994  0.07753571    -0.58000
C160        C  0.82994050  0.35839289  0.14677964     0.75800
C161        C  0.79780369  0.32625685  0.06086892     0.78100
Cd162      Cd  0.83703600  0.36200902  0.08650214     1.37500
O163        O  0.82831226  0.41745095  0.08420281    -0.56800
O164        O  0.79345660  0.34619759  0.07959945    -0.55700
C165        C  0.89008013  0.35029218  0.07968408     0.78100
O166        O  0.82047304  0.32207993  0.05453959    -0.58000
O167        O  0.83444865  0.39491637  0.04448555    -0.56500
O168        O  0.83629159  0.33521159  0.13235359    -0.56500
O169        O  0.88121553  0.37658839  0.08496677    -0.55600
O170        O  0.64655651  0.12231017  0.93203669    -0.56800
C171        C  0.63894155  0.17665754  0.86437705     0.75800
O172        O  0.59068293  0.20564921  0.93170485    -0.58000
C173        C  0.63504284  0.11739627  0.95488438     0.75800
C174        C  0.66291024  0.21072057  0.95684578     0.78100
Cd175      Cd  0.62880659  0.17401304  0.92438372     1.37500
O176        O  0.63604594  0.15162281  0.87740706    -0.56800
O177        O  0.66989565  0.18807638  0.94213383    -0.55700
C178        C  0.57587151  0.18346907  0.92792253     0.78100
O179        O  0.63997025  0.21738487  0.95575428    -0.58000
O180        O  0.63769706  0.20076437  0.87920050    -0.56500
O181        O  0.62091428  0.13873490  0.96345395    -0.56500
O182        O  0.58561113  0.15798097  0.92141729    -0.55600
O183        O  0.64021174  0.91607735  0.08946242    -0.56800
C184        C  0.63569960  0.85913544  0.15568111     0.75800
O185        O  0.59223020  0.83243623  0.07702711    -0.58000
C186        C  0.63111888  0.91877113  0.06494066     0.75800
C187        C  0.66779234  0.82652182  0.07125917     0.78100
Cd188      Cd  0.62779764  0.86224345  0.09562706     1.37500
O189        O  0.63704661  0.88430027  0.14244467    -0.56800
O190        O  0.66871448  0.85530165  0.07416557    -0.55700
C191        C  0.57586374  0.84814992  0.08983314     0.78100
O192        O  0.64789743  0.81397139  0.07960022    -0.58000
O193        O  0.63123734  0.83560994  0.14098843    -0.56500
O194        O  0.62029870  0.89546101  0.05483485    -0.56500
O195        O  0.58369154  0.87029569  0.10453957    -0.55600
O196        O  0.82884374  0.65703185  0.87840422    -0.56800
C197        C  0.82772392  0.62038688  0.95161058     0.75800
O198        O  0.87132686  0.71302345  0.93459476    -0.58000
C199        C  0.82976060  0.68197511  0.86482787     0.75800
C200        C  0.80156605  0.71683233  0.95938037     0.78100
Cd201      Cd  0.83488460  0.67945050  0.92566961     1.37500
O202        O  0.81051482  0.63250889  0.93708481    -0.56800
O203        O  0.79480863  0.70530518  0.93615678    -0.55700
C204        C  0.88716952  0.69150846  0.93217725     0.78100
O205        O  0.82395422  0.71211720  0.96642330    -0.58000
O206        O  0.84752770  0.63564087  0.95400803    -0.56500
O207        O  0.83214229  0.70612074  0.87938019    -0.56500
O208        O  0.87870489  0.66525624  0.92630938    -0.55600
C209        C  0.76556524  0.74351810  0.02431167    -0.04500
C210        C  0.74827532  0.76406413  0.01225405     0.09700
C211        C  0.74928897  0.77044975  0.98314267    -0.01900
C212        C  0.76692529  0.75545191  0.96588261    -0.00100
C213        C  0.78395407  0.73419612  0.97773464    -0.03800
C214        C  0.78342560  0.72869585  0.00718157     0.03300
C215        C  0.72830788  0.77838883  0.02990452     0.10100
C216        C  0.73205639  0.79253771  0.97101929     0.36000
C217        C  0.80045479  0.70672228  0.01981648     0.39400
C218        C  0.73297605  0.80567924  0.04482064    -0.04100
C219        C  0.71347896  0.82076782  0.05921425     0.03000
C220        C  0.68888093  0.80885052  0.05841402    -0.03700
C221        C  0.68463609  0.78052856  0.04443907     0.00000
C222        C  0.70434998  0.76535436  0.03047639    -0.02500
C223        C  0.75790552  0.81838878  0.04509528     0.36700
C224        C  0.65991172  0.76727915  0.04327694     0.40400
C225        C  0.71909270  0.84836853  0.07510278     0.39500
C226        C  0.70000036  0.73634420  0.01630604     0.36400
C227        C  0.76460782  0.73723957  0.05431760     0.37100
C228        C  0.76775111  0.76243729  0.93600542     0.40300
N229        N  0.72360808  0.87037953  0.08774109    -0.37700
N230        N  0.77778879  0.82851438  0.04541933    -0.39300
N231        N  0.64024287  0.75657445  0.04226355    -0.37100
N232        N  0.69662219  0.71314900  0.00508111    -0.39400
N233        N  0.71829908  0.81023894  0.96151234    -0.39200
N234        N  0.76831145  0.76810344  0.91218670    -0.36800
N235        N  0.81402662  0.68919548  0.02992228    -0.37900
N236        N  0.76382629  0.73227712  0.07826025    -0.39600
C237        C  0.65812953  0.98998846  0.03010900    -0.04500
C238        C  0.63675558  0.00274585  0.01732598     0.09700
C239        C  0.61354655  0.98803825  0.02028628    -0.01900
C240        C  0.61165936  0.96071575  0.03604103    -0.00100
C241        C  0.63306488  0.94777204  0.04873527    -0.03800
C242        C  0.65633781  0.96246608  0.04564155     0.03300
C243        C  0.63840166  0.03218203  0.00125561     0.10100
C244        C  0.59152875  0.00135602  0.00737592     0.36000
C245        C  0.67861504  0.94874466  0.05760510     0.39400
C246        C  0.63943426  0.03185477  0.97156131    -0.04100
C247        C  0.63892506  0.05966648  0.95631820     0.03000
C248        C  0.63757139  0.08807849  0.97077478    -0.03700
C249        C  0.63758359  0.08826571  0.00063396     0.00000
C250        C  0.63775884  0.06040710  0.01574951    -0.02500
C251        C  0.64050809  0.00276644  0.95671731     0.36700
C252        C  0.63796994  0.11709089  0.01596171     0.40400
C253        C  0.63867668  0.05878703  0.92574530     0.39500
C254        C  0.63678645  0.06068187  0.04631028     0.36400
C255        C  0.68194372  0.00525971  0.02725986     0.37100
C256        C  0.58748832  0.94660997  0.04010680     0.40300
N257        N  0.63846942  0.05808325  0.90136524    -0.37700
N258        N  0.64132811  0.97955414  0.94488060    -0.39300
N259        N  0.63835476  0.14007889  0.02818636    -0.37100
N260        N  0.63598718  0.06080307  0.07067884    -0.39400
N261        N  0.57402544  0.01203175  0.99700388    -0.39200
N262        N  0.56821566  0.93540035  0.04350027    -0.36800
N263        N  0.69638103  0.93771269  0.06706086    -0.37900
N264        N  0.70092548  0.01752012  0.02509925    -0.39600
C265        C  0.83374030  0.50470621  0.03952807    -0.04500
C266        C  0.82241074  0.50535526  0.01276142     0.09700
C267        C  0.81212761  0.47835293  0.00142512    -0.01900
C268        C  0.81387472  0.45046058  0.01641163    -0.00100
C269        C  0.82638545  0.44932602  0.04268705    -0.03800
C270        C  0.83607070  0.47676642  0.05430987     0.03300
C271        C  0.82287258  0.53415928  0.99571555     0.10100
C272        C  0.79990642  0.47935903  0.97418435     0.36000
C273        C  0.84955729  0.47622877  0.08079469     0.39400
C274        C  0.84413786  0.54110037  0.97955014    -0.04100
C275        C  0.84535057  0.56884852  0.96441209     0.03000
C276        C  0.82524121  0.58994547  0.96537257    -0.03700
C277        C  0.80362317  0.58251096  0.98095935     0.00000
C278        C  0.80253269  0.55471317  0.99620170    -0.02500
C279        C  0.86493179  0.51972101  0.97881271     0.36700
C280        C  0.78296396  0.60400067  0.98246736     0.40400
C281        C  0.86721872  0.57533333  0.94744886     0.39500
C282        C  0.78078776  0.54753821  0.01304689     0.36400
C283        C  0.84320856  0.53291286  0.05168412     0.37100
C284        C  0.80224149  0.42315810  0.00496624     0.40300
N285        N  0.88466433  0.58041888  0.93393149    -0.37700
N286        N  0.88150586  0.50266520  0.97830112    -0.39300
N287        N  0.76646602  0.62112921  0.98370355    -0.37100
N288        N  0.76348689  0.54178654  0.02656479    -0.39400
N289        N  0.79012960  0.48029747  0.95246945    -0.39200
N290        N  0.79286960  0.40144292  0.99585195    -0.36800
N291        N  0.86041267  0.47587360  0.10186112    -0.37900
N292        N  0.85058471  0.55549484  0.06136502    -0.39600
C293        C  0.75845881  0.28854573  0.00368532    -0.04500
C294        C  0.73780207  0.27825728  0.01933793     0.09700
C295        C  0.73678866  0.28349160  0.04861368    -0.01900
C296        C  0.75642645  0.29892056  0.06229993    -0.00100
C297        C  0.77730708  0.30921811  0.04669865    -0.03800
C298        C  0.77812879  0.30399471  0.01724067     0.03300
C299        C  0.71744781  0.26098275  0.00495678     0.10100
C300        C  0.71550419  0.27274890  0.06460589     0.36000
C301        C  0.79873135  0.31546441  0.00053664     0.39400
C302        C  0.71832730  0.22867533  0.00400815    -0.04100
C303        C  0.70005680  0.21226110  0.98904269     0.03000
C304        C  0.68087057  0.22813573  0.97452813    -0.03700
C305        C  0.67944553  0.26053850  0.97656547     0.00000
C306        C  0.69772508  0.27685616  0.99173302    -0.02500
C307        C  0.73824836  0.21236845  0.01832956     0.36700
C308        C  0.65976520  0.27732300  0.96229981     0.40400
C309        C  0.70071991  0.17893048  0.98933001     0.39500
C310        C  0.69649671  0.31007336  0.99349159     0.36400
C311        C  0.75937641  0.28321141  0.97351570     0.37100
C312        C  0.75533430  0.30333548  0.09257845     0.40300
N313        N  0.70122059  0.15236469  0.98963428    -0.37700
N314        N  0.75415047  0.19944644  0.02980729    -0.39300
N315        N  0.64405754  0.29077578  0.95098050    -0.37100
N316        N  0.69554414  0.33657193  0.99493966    -0.39400
N317        N  0.69848330  0.26408403  0.07722934    -0.39200
N318        N  0.75437774  0.30681218  0.11673812    -0.36800
N319        N  0.81512390  0.32463748  0.98716879    -0.37900
N320        N  0.76002695  0.27894691  0.94945325    -0.39600
C321        C  0.66791849  0.16451262  0.72758544    -0.04500
C322        C  0.65103390  0.18318988  0.74260807     0.09700
C323        C  0.63471009  0.20281597  0.72785403    -0.01900
C324        C  0.63425735  0.20261071  0.69813266    -0.00100
C325        C  0.65019288  0.18256276  0.68286591    -0.03800
C326        C  0.66755567  0.16417743  0.69782810     0.03300
C327        C  0.64908722  0.18069319  0.77397914     0.10100
C328        C  0.61791997  0.22271884  0.74345736     0.36000
C329        C  0.68545797  0.14534382  0.68271636     0.39400
C330        C  0.66249940  0.20070942  0.79162022    -0.04100
C331        C  0.65978250  0.19890555  0.82118984     0.03000
C332        C  0.64300327  0.17760165  0.83328252    -0.03700
C333        C  0.62961157  0.15752124  0.81538324     0.00000
C334        C  0.63282721  0.15895559  0.78592020    -0.02500
C335        C  0.67874016  0.22353024  0.77919568     0.36700
C336        C  0.61160425  0.13622382  0.82700362     0.40400
C337        C  0.67488864  0.21836083  0.83908089     0.39500
C338        C  0.61888853  0.13855083  0.76766420     0.36400
C339        C  0.68550993  0.14543893  0.74288164     0.37100
C340        C  0.61653121  0.22217590  0.68354077     0.40300
N341        N  0.68709206  0.23377382  0.85329701    -0.37700
N342        N  0.69152920  0.24185572  0.76917193    -0.39300
N343        N  0.59717559  0.11927068  0.83617883    -0.37100
N344        N  0.60780349  0.12237807  0.75299513    -0.39400
N345        N  0.60461947  0.23856361  0.75604556    -0.39200
N346        N  0.60241250  0.23789751  0.67200286    -0.36800
N347        N  0.69982382  0.13038967  0.67071298    -0.37900
N348        N  0.69958280  0.13032626  0.75514268    -0.39600
C349        C  0.83852971  0.38249995  0.28258467    -0.04500
C350        C  0.82421263  0.35984323  0.26903843     0.09700
C351        C  0.81160949  0.33764297  0.28518969    -0.01900
C352        C  0.81414740  0.33725724  0.31478980    -0.00100
C353        C  0.82919088  0.35934641  0.32846599    -0.03800
C354        C  0.84105739  0.38231855  0.31215010     0.03300
C355        C  0.82436716  0.35782796  0.23760007     0.10100
C356        C  0.79627842  0.31494036  0.27120951     0.36000
C357        C  0.85702339  0.40489951  0.32543665     0.39400
C358        C  0.84347001  0.34118434  0.22402531    -0.04100
C359        C  0.84490343  0.34064183  0.19437656     0.03000
C360        C  0.82726562  0.35702199  0.17799933    -0.03700
C361        C  0.80770498  0.37305108  0.19173018     0.00000
C362        C  0.80629419  0.37341206  0.22144792    -0.02500
C363        C  0.86206762  0.32521514  0.24075989     0.36700
C364        C  0.78866969  0.38865526  0.17536470     0.40400
C365        C  0.86527663  0.32428030  0.18093681     0.39500
C366        C  0.78640835  0.39005036  0.23549767     0.36400
C367        C  0.85124741  0.40554070  0.26588435     0.37100
C368        C  0.80107099  0.31418154  0.33104507     0.40300
N369        N  0.88155088  0.31118524  0.17031168    -0.37700
N370        N  0.87688290  0.31261788  0.25422286    -0.39300
N371        N  0.77345142  0.40106560  0.16232857    -0.37100
N372        N  0.77052488  0.40329741  0.24670973    -0.39400
N373        N  0.78397670  0.29689070  0.26006484    -0.39200
N374        N  0.79067866  0.29564416  0.34390565    -0.36800
N375        N  0.86978484  0.42290378  0.33597476    -0.37900
N376        N  0.86138646  0.42387271  0.25252162    -0.39600
C377        C  0.75105781  0.27350719  0.47066106    -0.04500
C378        C  0.75553828  0.26892653  0.49962472     0.09700
C379        C  0.77774642  0.27969795  0.51182438    -0.01900
C380        C  0.79538197  0.29532130  0.49519549    -0.00100
C381        C  0.79075491  0.30059999  0.46616012    -0.03800
C382        C  0.76844964  0.28950983  0.45399996     0.03300
C383        C  0.73655070  0.25309606  0.51739790     0.10100
C384        C  0.78223144  0.27504228  0.54167733     0.36000
C385        C  0.76339393  0.29402147  0.42425450     0.39400
C386        C  0.73915854  0.22164392  0.52365426    -0.04100
C387        C  0.72061670  0.20633250  0.53929278     0.03000
C388        C  0.69932490  0.22259872  0.54906784    -0.03700
C389        C  0.69733142  0.25450316  0.54349138     0.00000
C390        C  0.71577592  0.26955095  0.52755467    -0.02500
C391        C  0.76085650  0.20499305  0.51353152     0.36700
C392        C  0.67665241  0.27226416  0.55466954     0.40400
C393        C  0.72322771  0.17359703  0.54420240     0.39500
C394        C  0.71340330  0.30208439  0.52146667     0.36400
C395        C  0.72848477  0.26156581  0.45802627     0.37100
C396        C  0.81780125  0.30691901  0.50845548     0.40300
N397        N  0.72549775  0.14748084  0.54798975    -0.37700
N398        N  0.77824454  0.19189381  0.50547455    -0.39300
N399        N  0.66019752  0.28649082  0.56358569    -0.37100
N400        N  0.71151177  0.32800773  0.51651977    -0.39400
N401        N  0.78579843  0.27130294  0.56548454    -0.39200
N402        N  0.83568558  0.31602373  0.51911304    -0.36800
N403        N  0.75915559  0.29765701  0.40057565    -0.37900
N404        N  0.71049223  0.25195965  0.44800138    -0.39600
C405        C  0.84298933  0.66265122  0.78791059    -0.04500
C406        C  0.82781823  0.68415473  0.77373276     0.09700
C407        C  0.81316848  0.70500130  0.78937576    -0.01900
C408        C  0.81356375  0.70422104  0.81915548    -0.00100
C409        C  0.82877792  0.68265357  0.83345689    -0.03800
C410        C  0.84352514  0.66188644  0.81760590     0.03300
C411        C  0.82785181  0.68485677  0.74219060     0.10100
C412        C  0.79781248  0.72733061  0.77474134     0.36000
C413        C  0.86010519  0.64046692  0.83173196     0.39400
C414        C  0.81153714  0.66583610  0.72691767    -0.04100
C415        C  0.81397804  0.66302578  0.69739896     0.03000
C416        C  0.83242659  0.67993286  0.68279031    -0.03700
C417        C  0.84808940  0.70001059  0.69817550     0.00000
C418        C  0.84580832  0.70232979  0.72773226    -0.02500
C419        C  0.79235908  0.64892974  0.74175254     0.36700
C420        C  0.86761886  0.71700822  0.68400011     0.40400
C421        C  0.79743707  0.64262989  0.68221363     0.39500
C422        C  0.86241642  0.72209351  0.74352250     0.36400
C423        C  0.85840143  0.64159246  0.77176249     0.37100
C424        C  0.79770999  0.72500261  0.83499852     0.40300
N425        N  0.78434455  0.62616648  0.67017671    -0.37700
N426        N  0.77696955  0.63562553  0.75361502    -0.39300
N427        N  0.88325566  0.73053939  0.67277933    -0.37100
N428        N  0.87562863  0.73780569  0.75621364    -0.39400
N429        N  0.78561545  0.74519535  0.76303356    -0.39200
N430        N  0.78498183  0.74152653  0.84761249    -0.36800
N431        N  0.87340333  0.62340907  0.84291292    -0.37900
N432        N  0.87068732  0.62493479  0.75874491    -0.39600
C433        C  0.83647332  0.49808060  0.46876326    -0.04500
C434        C  0.83754704  0.49722936  0.49843638     0.09700
C435        C  0.83810063  0.46878033  0.51256910    -0.01900
C436        C  0.83794423  0.44118929  0.49707064    -0.00100
C437        C  0.83784853  0.44191774  0.46725041    -0.03800
C438        C  0.83675342  0.47054191  0.45316134     0.03300
C439        C  0.83856443  0.52643044  0.51484280     0.10100
C440        C  0.83905903  0.46798588  0.54311835     0.36000
C441        C  0.83680823  0.47185479  0.42259975     0.39400
C442        C  0.81661647  0.53916447  0.52630192    -0.04100
C443        C  0.81760831  0.56677939  0.54175436     0.03000
C444        C  0.84062415  0.58178998  0.54582146    -0.03700
C445        C  0.86259417  0.56903743  0.53410197     0.00000
C446        C  0.86153360  0.54138392  0.51874399    -0.02500
C447        C  0.79297656  0.52395471  0.52180654     0.36700
C448        C  0.88643796  0.58392505  0.53833373     0.40400
C449        C  0.79476244  0.58042967  0.55232805     0.39500
C450        C  0.88408390  0.52813271  0.50696824     0.36400
C451        C  0.83533368  0.52742026  0.45433786     0.37100
C452        C  0.83693519  0.41211095  0.51193068     0.40300
N453        N  0.77653737  0.59143029  0.56064900    -0.37700
N454        N  0.77415786  0.51174584  0.51815484    -0.39300
N455        N  0.90544676  0.59581205  0.54165522    -0.37100
N456        N  0.90200447  0.51747529  0.49750733    -0.39400
N457        N  0.83986050  0.46739133  0.56748186    -0.39200
N458        N  0.83592589  0.38898184  0.52387148    -0.36800
N459        N  0.83684646  0.47290305  0.39822793    -0.37900
N460        N  0.83440759  0.55086005  0.44289082    -0.39600
C461        C  0.61981110  0.84032323  0.29208915    -0.04500
C462        C  0.64193158  0.84783392  0.27765005     0.09700
C463        C  0.66398428  0.85306552  0.29302846    -0.01900
C464        C  0.66365978  0.85219271  0.32276221    -0.00100
C465        C  0.64114461  0.84661753  0.33737358    -0.03800
C466        C  0.61935413  0.83973180  0.32180563     0.03300
C467        C  0.64161186  0.85138611  0.24625676     0.10100
C468        C  0.68695252  0.85977786  0.27820794     0.36000
C469        C  0.59610783  0.83315501  0.33614457     0.39400
C470        C  0.63035623  0.87753357  0.23404468    -0.04100
C471        C  0.62862489  0.88029219  0.20450077     0.03000
C472        C  0.63870037  0.85717083  0.18683246    -0.03700
C473        C  0.65076291  0.83148923  0.19917307     0.00000
C474        C  0.65187033  0.82842907  0.22874852    -0.02500
C475        C  0.62021200  0.90147334  0.25201814     0.36700
C476        C  0.66265583  0.80849437  0.18152718     0.40400
C477        C  0.61545103  0.90634917  0.19249771     0.39500
C478        C  0.66325509  0.80139608  0.24121134     0.36400
C479        C  0.59734253  0.83378242  0.27622729     0.37100
C480        C  0.68671740  0.85605433  0.33825028     0.40300
N481        N  0.60488499  0.92710653  0.18297180    -0.37700
N482        N  0.61207117  0.92049463  0.26638369    -0.39300
N483        N  0.67221952  0.79024969  0.16742448    -0.37100
N484        N  0.67236303  0.77983066  0.25112512    -0.39400
N485        N  0.70528741  0.86498015  0.26634353    -0.39200
N486        N  0.70513944  0.85887766  0.35060539    -0.36800
N487        N  0.57750164  0.82782801  0.34740834    -0.37900
N488        N  0.57945404  0.82871061  0.26349424    -0.39600
C489        C  0.62936545  0.03302039  0.54189940    -0.04500
C490        C  0.64016821  0.03172702  0.51482699     0.09700
C491        C  0.65075192  0.05827421  0.50289749    -0.01900
C492        C  0.65073540  0.08607211  0.51809516    -0.00100
C493        C  0.63987251  0.08747203  0.54524750    -0.03800
C494        C  0.62899922  0.06086606  0.55698598     0.03300
C495        C  0.64049915  0.00214274  0.49899671     0.10100
C496        C  0.66187906  0.05678567  0.47506451     0.36000
C497        C  0.61653405  0.06232782  0.58409794     0.39400
C498        C  0.62214946  0.99613489  0.47853607    -0.04100
C499        C  0.62159607  0.96747283  0.46476074     0.03000
C500        C  0.63972176  0.94479103  0.47106214    -0.03700
C501        C  0.65804033  0.95095328  0.49174417     0.00000
C502        C  0.65857973  0.97968508  0.50535624    -0.02500
C503        C  0.60371911  0.01947468  0.47188391     0.36700
C504        C  0.67634855  0.92784753  0.49932086     0.40400
C505        C  0.60135543  0.96072867  0.44551107     0.39500
C506        C  0.67785049  0.98634623  0.52587822     0.36400
C507        C  0.61860036  0.00558932  0.55416896     0.37100
C508        C  0.66270200  0.11290003  0.50613856     0.40300
N509        N  0.58504892  0.95529729  0.43040306    -0.37700
N510        N  0.58915376  0.03823705  0.46652361    -0.39300
N511        N  0.69086085  0.90951573  0.50592466    -0.37100
N512        N  0.69323206  0.99179143  0.54217542    -0.39400
N513        N  0.67067686  0.05550058  0.45282763    -0.39200
N514        N  0.67231433  0.13426991  0.49663820    -0.36800
N515        N  0.60645888  0.06348158  0.60563935    -0.37900
N516        N  0.61015320  0.98362621  0.56394534    -0.39600
C517        C  0.77360041  0.74398350  0.50279132    -0.04500
C518        C  0.75113299  0.75248710  0.51610070     0.09700
C519        C  0.74736940  0.74546252  0.54478231    -0.01900
C520        C  0.76601561  0.72992975  0.56016044    -0.00100
C521        C  0.78870721  0.72157376  0.54696620    -0.03800
C522        C  0.79245444  0.72888054  0.51820159     0.03300
C523        C  0.73166320  0.76965852  0.49999552     0.10100
C524        C  0.72429168  0.75444171  0.55846064     0.36000
C525        C  0.81533998  0.72002315  0.50406586     0.39400
C526        C  0.71032716  0.75439594  0.48999759    -0.04100
C527        C  0.69185163  0.77078743  0.47512057     0.03000
C528        C  0.69494722  0.80247886  0.46946945    -0.03700
C529        C  0.71687190  0.81741551  0.47867996     0.00000
C530        C  0.73479497  0.80120467  0.49451100    -0.02500
C531        C  0.70749256  0.72172869  0.49493539     0.36700
C532        C  0.72110442  0.84953541  0.47225585     0.40400
C533        C  0.67006754  0.75465296  0.46486274     0.39500
C534        C  0.75631880  0.81710069  0.50574203     0.36400
C535        C  0.77705581  0.75038581  0.47302925     0.37100
C536        C  0.76205468  0.72344482  0.58981674     0.40300
N537        N  0.65269185  0.74179025  0.45670193    -0.37700
N538        N  0.70523073  0.69566529  0.49886083    -0.39300
N539        N  0.72488582  0.87500392  0.46684943    -0.37100
N540        N  0.77342914  0.82972255  0.51487009    -0.39400
N541        N  0.70582498  0.76156868  0.56925178    -0.39200
N542        N  0.75885606  0.71831145  0.61347244    -0.36800
N543        N  0.83358353  0.71305913  0.49271132    -0.37900
N544        N  0.77965624  0.75549155  0.44927582    -0.39600
C545        C  0.00543947  0.69033490  0.90742870    -0.04500
C546        C  0.99463231  0.70071238  0.93280079     0.09700
C547        C  0.01002449  0.70982414  0.95531476    -0.01900
C548        C  0.03618511  0.70792875  0.95275249    -0.00100
C549        C  0.04715032  0.69678036  0.92754592    -0.03800
C550        C  0.03154311  0.68853519  0.90469662     0.03300
C551        C  0.96692268  0.70068493  0.93598086     0.10100
C552        C  0.99881326  0.72039882  0.98140093     0.36000
C553        C  0.04220926  0.67852043  0.87810284     0.39400
C554        C  0.95511287  0.67601142  0.94972760    -0.04100
C555        C  0.92892865  0.67411804  0.95003527     0.03000
C556        C  0.91438012  0.69631488  0.93563624    -0.03700
C557        C  0.92623283  0.72184121  0.92311164     0.00000
C558        C  0.95242315  0.72422054  0.92371626    -0.02500
C559        C  0.96998880  0.65220388  0.96304093     0.36700
C560        C  0.91169379  0.74480287  0.90821844     0.40400
C561        C  0.91701275  0.64962787  0.96574269     0.39500
C562        C  0.96457227  0.75066725  0.91136334     0.36400
C563        C  0.98956634  0.68075965  0.88431266     0.37100
C564        C  0.05161859  0.71610726  0.97665212     0.40300
N565        N  0.90760014  0.63024872  0.97853666    -0.37700
N566        N  0.98189238  0.63325935  0.97366022    -0.39300
N567        N  0.90006427  0.76302665  0.89624012    -0.37100
N568        N  0.97427711  0.77186748  0.90168280    -0.39400
N569        N  0.98979203  0.72866083  0.00222781    -0.39200
N570        N  0.06387173  0.72263858  0.99577350    -0.36800
N571        N  0.05065398  0.67050852  0.85688178    -0.37900
N572        N  0.97685858  0.67309965  0.86594421    -0.39600
C573        C  0.50764580  0.84118790  0.11016628    -0.04500
C574        C  0.49667217  0.83414726  0.08401039     0.09700
C575        C  0.51178984  0.82903779  0.06017778    -0.01900
C576        C  0.53782554  0.83265005  0.06209442    -0.00100
C577        C  0.54882564  0.84128368  0.08801779    -0.03800
C578        C  0.53362014  0.84461193  0.11224557     0.03300
C579        C  0.46902090  0.83460092  0.08130691     0.10100
C580        C  0.50038428  0.82065943  0.03357716     0.36000
C581        C  0.54462859  0.85117457  0.13952266     0.39400
C582        C  0.45705199  0.86147523  0.07170661    -0.04100
C583        C  0.43090237  0.86330291  0.07151920     0.03000
C584        C  0.41651563  0.83867618  0.08209704    -0.03700
C585        C  0.42858657  0.81132973  0.09086093     0.00000
C586        C  0.45479364  0.80924276  0.09013069    -0.02500
C587        C  0.47174513  0.88773053  0.06300755     0.36700
C588        C  0.41430827  0.78594534  0.10215997     0.40400
C589        C  0.41890349  0.89049267  0.06004049     0.39500
C590        C  0.46726468  0.78138399  0.09929002     0.36400
C591        C  0.49205216  0.84551818  0.13486011     0.37100
C592        C  0.55299156  0.82888759  0.03702467     0.40300
N593        N  0.40941999  0.91212554  0.05071102    -0.37700
N594        N  0.48348788  0.90869897  0.05624863    -0.39300
N595        N  0.40298382  0.76568679  0.11127088    -0.37100
N596        N  0.47728141  0.75919517  0.10658570    -0.39400
N597        N  0.49121839  0.81393119  0.01240578    -0.39200
N598        N  0.56502843  0.82585807  0.01697145    -0.36800
N599        N  0.55339922  0.85639336  0.16126850    -0.37900
N600        N  0.47956829  0.84886234  0.15451612    -0.39600
C601        C  0.22000029  0.72277640  0.00252182    -0.04500
C602        C  0.22392926  0.75466293  0.00079754     0.09700
C603        C  0.20937990  0.77266418  0.98231386    -0.01900
C604        C  0.19057003  0.75888061  0.96593580    -0.00100
C605        C  0.18639659  0.72691160  0.96782621    -0.03800
C606        C  0.20137585  0.70887827  0.98605192     0.03300
C607        C  0.24351223  0.76933236  0.01852111     0.10100
C608        C  0.21393786  0.80538260  0.98010717     0.36000
C609        C  0.19720601  0.67608652  0.98862713     0.39400
C610        C  0.26772516  0.77317474  0.00774725    -0.04100
C611        C  0.28602876  0.78798717  0.02402390     0.03000
C612        C  0.28028199  0.79876889  0.05148872    -0.03700
C613        C  0.25611247  0.79391415  0.06254493     0.00000
C614        C  0.23782451  0.77924827  0.04606057    -0.02500
C615        C  0.27374867  0.76181644  0.97980482     0.36700
C616        C  0.25011902  0.80318672  0.09112280     0.40400
C617        C  0.31045775  0.79311471  0.01184049     0.39500
C618        C  0.21311716  0.77405155  0.05743395     0.36400
C619        C  0.23510756  0.70434073  0.02145139     0.37100
C620        C  0.17610894  0.77748096  0.94651526     0.40300
N621        N  0.32992602  0.79718542  0.00209722    -0.37700
N622        N  0.27856348  0.75262865  0.95756941    -0.39300
N623        N  0.24524857  0.81047167  0.11393215    -0.37100
N624        N  0.19341279  0.76970481  0.06642797    -0.39400
N625        N  0.21768737  0.83145578  0.97834748    -0.39200
N626        N  0.16462395  0.79235111  0.93098864    -0.36800
N627        N  0.19395302  0.64992994  0.99063507    -0.37900
N628        N  0.24716824  0.68970826  0.03659874    -0.39600
C629        C  0.45325226  0.19883392  0.95404247    -0.04500
C630        C  0.46825055  0.18738573  0.93202254     0.09700
C631        C  0.45714630  0.17336551  0.90843163    -0.01900
C632        C  0.43110446  0.17021444  0.90704683    -0.00100
C633        C  0.41592507  0.18140867  0.92921124    -0.03800
C634        C  0.42710630  0.19630469  0.95248150     0.03300
C635        C  0.49594134  0.18858805  0.93399773     0.10100
C636        C  0.47268818  0.16171330  0.88576237     0.36000
C637        C  0.41187879  0.20809719  0.97533336     0.39400
C638        C  0.50896508  0.16395604  0.94642857    -0.04100
C639        C  0.53514159  0.16302777  0.94541651     0.03000
C640        C  0.54848463  0.18649846  0.93139260    -0.03700
C641        C  0.53539257  0.21190291  0.92004357     0.00000
C642        C  0.50915387  0.21298576  0.92154242    -0.02500
C643        C  0.49529536  0.13919353  0.95972841     0.36700
C644        C  0.54867361  0.23614197  0.90553409     0.40400
C645        C  0.54830225  0.13805227  0.95926728     0.39500
C646        C  0.49559948  0.23881396  0.90971907     0.36400
C647        C  0.46485141  0.21234236  0.97866415     0.37100
C648        C  0.41998987  0.15599761  0.88242982     0.40300
N649        N  0.55879676  0.11819321  0.97037215    -0.37700
N650        N  0.48433777  0.11946442  0.97027996    -0.39300
N651        N  0.55918542  0.25549482  0.89386125    -0.37100
N652        N  0.48469779  0.25941722  0.90040575    -0.39400
N653        N  0.48517403  0.15245662  0.86776170    -0.39200
N654        N  0.41114710  0.14463955  0.86280789    -0.36800
N655        N  0.39974418  0.21764407  0.99351731    -0.37900
N656        N  0.47415718  0.22288202  0.99839063    -0.39600
C657        C  0.34115675  0.02362010  0.97213612    -0.04500
C658        C  0.32838686  0.02148509  0.99802008     0.09700
C659        C  0.31616614  0.04749121  0.00913962    -0.01900
C660        C  0.31699507  0.07574444  0.99469107    -0.00100
C661        C  0.32988131  0.07810097  0.96874694    -0.03800
C662        C  0.34191676  0.05180917  0.95749796     0.03300
C663        C  0.32911543  0.99237111  0.01466079     0.10100
C664        C  0.30301059  0.04512091  0.03576593     0.36000
C665        C  0.35632710  0.05404727  0.93170161     0.39400
C666        C  0.34625949  0.98927896  0.03699103    -0.04100
C667        C  0.34661517  0.96237027  0.05346401     0.03000
C668        C  0.33000841  0.93814051  0.04741473    -0.03700
C669        C  0.31275926  0.94133384  0.02507778     0.00000
C670        C  0.31227904  0.96844830  0.00880802    -0.02500
C671        C  0.36359401  0.01392276  0.04289707     0.36700
C672        C  0.29483984  0.91723133  0.01953248     0.40400
C673        C  0.36455990  0.95943273  0.07616274     0.39500
C674        C  0.29424390  0.97199639  0.98629564     0.36400
C675        C  0.35413875  0.99695761  0.96103807     0.37100
C676        C  0.30436932  0.10225894  0.00657615     0.40300
N677        N  0.37887797  0.95724019  0.09427896    -0.37700
N678        N  0.37732177  0.03370491  0.04749616    -0.39300
N679        N  0.28049255  0.89803499  0.01524928    -0.37100
N680        N  0.27982952  0.97485708  0.96835700    -0.39400
N681        N  0.29262829  0.04303689  0.05705167    -0.39200
N682        N  0.29437709  0.12336928  0.01623256    -0.36800
N683        N  0.36793601  0.05583191  0.91121222    -0.37900
N684        N  0.36451716  0.97568537  0.95223556    -0.39600
C685        C  0.00907810  0.34709437  0.10436739    -0.04500
C686        C  0.99804133  0.33895362  0.07843977     0.09700
C687        C  0.01337502  0.33144225  0.05525936    -0.01900
C688        C  0.03957825  0.33331988  0.05762657    -0.00100
C689        C  0.05063347  0.34261850  0.08331875    -0.03800
C690        C  0.03521544  0.34878656  0.10684914     0.03300
C691        C  0.97020919  0.33972491  0.07548654     0.10100
C692        C  0.00206192  0.32236632  0.02881477     0.36000
C693        C  0.04625468  0.35650920  0.13383725     0.39400
C694        C  0.95845731  0.36515865  0.06266236    -0.04100
C695        C  0.93224804  0.36777751  0.06280269     0.03000
C696        C  0.91749655  0.34533426  0.07647111    -0.03700
C697        C  0.92931559  0.31905760  0.08804232     0.00000
C698        C  0.95553051  0.31610892  0.08711391    -0.02500
C699        C  0.97343372  0.38890078  0.04962039     0.36700
C700        C  0.91478022  0.29569567  0.10220832     0.40400
C701        C  0.92050340  0.39336862  0.04831589     0.39500
C702        C  0.96756111  0.28884047  0.09828809     0.36400
C703        C  0.99342808  0.35438656  0.12840476     0.37100
C704        C  0.05499838  0.32719944  0.03315189     0.40300
N705        N  0.91112862  0.41368094  0.03663664    -0.37700
N706        N  0.98542097  0.40772675  0.03911478    -0.39300
N707        N  0.90329226  0.27701306  0.11361196    -0.37100
N708        N  0.97725540  0.26703548  0.10697860    -0.39400
N709        N  0.99292536  0.31520710  0.00774689    -0.39200
N710        N  0.06724982  0.32236281  0.01356481    -0.36800
N711        N  0.05511851  0.36258160  0.15534421    -0.37900
N712        N  0.98089372  0.36013051  0.14755020    -0.39600
C713        C  0.11010908  0.49040580  0.01748529    -0.04500
C714        C  0.13282755  0.50394892  0.00948325     0.09700
C715        C  0.15555437  0.48956990  0.01661756    -0.01900
C716        C  0.15556686  0.46194807  0.03216750    -0.00100
C717        C  0.13280494  0.44854914  0.04053198    -0.03800
C718        C  0.11005932  0.46277602  0.03292021     0.03300
C719        C  0.13269759  0.53396818  0.99424850     0.10100
C720        C  0.17888227  0.50315052  0.00771694     0.36000
C721        C  0.08654881  0.44955935  0.04174326     0.39400
C722        C  0.13515939  0.56150745  0.00951214    -0.04100
C723        C  0.13434334  0.59001668  0.99546176     0.03000
C724        C  0.13076851  0.59121870  0.96583989    -0.03700
C725        C  0.12815052  0.56333792  0.95064537     0.00000
C726        C  0.12910393  0.53490286  0.96485949    -0.02500
C727        C  0.13805116  0.56040435  0.03991079     0.36700
C728        C  0.12354546  0.56361211  0.92050152     0.40400
C729        C  0.13767998  0.61792286  0.01170429     0.39500
C730        C  0.12580233  0.50648437  0.94937991     0.36400
C731        C  0.08677462  0.50518240  0.00998355     0.37100
C732        C  0.17896476  0.44677340  0.03866736     0.40300
N733        N  0.14030300  0.64009460  0.02480390    -0.37700
N734        N  0.14023898  0.55940892  0.06415012    -0.39300
N735        N  0.11988240  0.56369754  0.89646995    -0.37100
N736        N  0.12300435  0.48380375  0.93709845    -0.39400
N737        N  0.19747930  0.51398682  0.00055448    -0.39200
N738        N  0.19761291  0.43458509  0.04377083    -0.36800
N739        N  0.06780482  0.43902894  0.04880750    -0.37900
N740        N  0.06823540  0.51705784  0.00387503    -0.39600
C741        C  0.26766629  0.27338977  0.98845710    -0.04500
C742        C  0.24539534  0.25990998  0.99803613     0.09700
C743        C  0.24099028  0.22850628  0.99301914    -0.01900
C744        C  0.25863269  0.21063568  0.97823610    -0.00100
C745        C  0.28098871  0.22406674  0.96834132    -0.03800
C746        C  0.28542339  0.25560847  0.97366934     0.03300
C747        C  0.22652896  0.27864713  0.01374337     0.10100
C748        C  0.21834279  0.21448278  0.00349585     0.36000
C749        C  0.30794175  0.27014141  0.96342490     0.39400
C750        C  0.20823824  0.29545033  0.99892874    -0.04100
C751        C  0.18957919  0.31167075  0.01376598     0.03000
C752        C  0.18916463  0.31128653  0.04358194    -0.03700
C753        C  0.20812961  0.29542308  0.05835148     0.00000
C754        C  0.22659967  0.27895430  0.04346028    -0.02500
C755        C  0.20873336  0.29608857  0.96837234     0.36700
C756        C  0.20844491  0.29545188  0.08889819     0.40400
C757        C  0.17143427  0.32981465  0.99831922     0.39500
C758        C  0.24565362  0.26206153  0.05867418     0.36400
C759        C  0.27231395  0.30560539  0.99402559     0.37100
C760        C  0.25403279  0.17811221  0.97422963     0.40300
N761        N  0.15704766  0.34445135  0.98603478    -0.37700
N762        N  0.20922648  0.29668343  0.94399531    -0.39300
N763        N  0.20889790  0.29555131  0.11327380    -0.37100
N764        N  0.26085551  0.24853115  0.07075777    -0.39400
N765        N  0.20033221  0.20327549  0.01196895    -0.39200
N766        N  0.25035089  0.15218184  0.97104125    -0.36800
N767        N  0.32590218  0.28179652  0.95531889    -0.37900
N768        N  0.27600191  0.33129890  0.99852342    -0.39600
C769        C  0.46422837  0.22203583  0.60257744    -0.04500
C770        C  0.47922120  0.20158899  0.58683176     0.09700
C771        C  0.46783391  0.17892558  0.56997511    -0.01900
C772        C  0.44169947  0.17640308  0.56918962    -0.00100
C773        C  0.42666033  0.19571646  0.58616713    -0.03800
C774        C  0.43805802  0.21883209  0.60262640     0.03300
C775        C  0.50705991  0.20253207  0.58899785     0.10100
C776        C  0.48309254  0.15748407  0.55405966     0.36000
C777        C  0.42310090  0.23821062  0.62089821     0.39400
C778        C  0.51898510  0.19132728  0.61343887    -0.04100
C779        C  0.54510992  0.18825752  0.61415241     0.03000
C780        C  0.55956458  0.19563604  0.59012778    -0.03700
C781        C  0.54766567  0.20823149  0.56611908     0.00000
C782        C  0.52154977  0.21219772  0.56583082    -0.02500
C783        C  0.50430425  0.18243390  0.63776972     0.36700
C784        C  0.56193999  0.21539875  0.54102863     0.40400
C785        C  0.55708263  0.17771918  0.63984851     0.39500
C786        C  0.50941238  0.22586026  0.54154342     0.36400
C787        C  0.47585249  0.24590339  0.61926803     0.37100
C788        C  0.43031528  0.15408485  0.55052582     0.40300
N789        N  0.56666212  0.16935639  0.66031875    -0.37700
N790        N  0.49259913  0.17560252  0.65725274    -0.39300
N791        N  0.57321178  0.22095741  0.52088121    -0.37100
N792        N  0.49962666  0.23686567  0.52228583    -0.39400
N793        N  0.49527983  0.14038370  0.54140931    -0.39200
N794        N  0.42122779  0.13639211  0.53556511    -0.36800
N795        N  0.41123830  0.25359447  0.63562530    -0.37900
N796        N  0.48520738  0.26483059  0.63264990    -0.39600
C797        C  0.33025100  0.14938059  0.78743349    -0.04500
C798        C  0.32486243  0.17764048  0.77427246     0.09700
C799        C  0.31856242  0.20341781  0.79079157    -0.01900
C800        C  0.31848264  0.20122990  0.82048105    -0.00100
C801        C  0.32508839  0.17327126  0.83382801    -0.03800
C802        C  0.33074638  0.14724470  0.81706961     0.03300
C803        C  0.32756520  0.18050562  0.74302034     0.10100
C804        C  0.31245326  0.23226870  0.77713905     0.36000
C805        C  0.33868153  0.11870235  0.83012581     0.39400
C806        C  0.30734891  0.17407326  0.72508132    -0.04100
C807        C  0.31060861  0.17441917  0.69555979     0.03000
C808        C  0.33422725  0.18099321  0.68380440    -0.03700
C809        C  0.35433755  0.18809480  0.70192715     0.00000
C810        C  0.35093528  0.18798745  0.73139966    -0.02500
C811        C  0.28325077  0.16687083  0.73712005     0.36700
C812        C  0.37890153  0.19405616  0.69046305     0.40400
C813        C  0.28945726  0.16876214  0.67731608     0.39500
C814        C  0.37161943  0.19502384  0.74995105     0.36400
C815        C  0.33577995  0.12260482  0.77030978     0.37100
C816        C  0.31130033  0.22770461  0.83720369     0.40300
N817        N  0.27257975  0.16436904  0.66273040    -0.37700
N818        N  0.26404117  0.16114304  0.74679655    -0.39300
N819        N  0.39856055  0.19869717  0.68146086    -0.37100
N820        N  0.38802672  0.20065913  0.76485408    -0.39400
N821        N  0.30757309  0.25526559  0.76620152    -0.39200
N822        N  0.30551735  0.24881770  0.85052884    -0.36800
N823        N  0.34519324  0.09599449  0.84048935    -0.37900
N824        N  0.34004141  0.10129277  0.75654306    -0.39600
C825        C  0.01358631  0.35699792  0.43909518    -0.04500
C826        C  0.00301794  0.33138640  0.42554144     0.09700
C827        C  0.01860001  0.30834045  0.41431304    -0.01900
C828        C  0.04475220  0.31149500  0.41551861    -0.00100
C829        C  0.05547993  0.33801266  0.42782132    -0.03800
C830        C  0.03965536  0.36031417  0.44031925     0.03300
C831        C  0.97537540  0.32958560  0.42219099     0.10100
C832        C  0.00757585  0.28160828  0.40112555     0.36000
C833        C  0.05008334  0.38650915  0.45502213     0.39400
C834        C  0.96411804  0.34045842  0.39725290    -0.04100
C835        C  0.93797302  0.34228034  0.39521811     0.03000
C836        C  0.92288695  0.33396344  0.41844339    -0.03700
C837        C  0.93421739  0.32139661  0.44283993     0.00000
C838        C  0.96039231  0.31905000  0.44456166    -0.02500
C839        C  0.97953780  0.35063226  0.37396946     0.36700
C840        C  0.91918766  0.31247274  0.46687686     0.40400
C841        C  0.92663383  0.35242488  0.36903762     0.39500
C842        C  0.97204500  0.30657960  0.46966851     0.36400
C843        C  0.99750389  0.38020769  0.45149922     0.37100
C844        C  0.06038744  0.28783002  0.40318700     0.40300
N845        N  0.91757003  0.36037419  0.34813295    -0.37700
N846        N  0.99186482  0.35877860  0.35543193    -0.39300
N847        N  0.90724177  0.30539036  0.48609956    -0.37100
N848        N  0.98138423  0.29658574  0.48965632    -0.39400
N849        N  0.99866819  0.26034371  0.39062280    -0.39200
N850        N  0.07272641  0.26876089  0.39341053    -0.36800
N851        N  0.05839245  0.40737721  0.46676711    -0.37900
N852        N  0.98464146  0.39863238  0.46144546    -0.39600
C853        C  0.15511432  0.33108107  0.22257861    -0.04500
C854        C  0.14539769  0.35495303  0.23940195     0.09700
C855        C  0.13375430  0.38033852  0.22644002    -0.01900
C856        C  0.13161220  0.38181927  0.19680738    -0.00100
C857        C  0.14136220  0.35791924  0.17967432    -0.03800
C858        C  0.15324810  0.33255481  0.19287859     0.03300
C859        C  0.14599951  0.35267495  0.27094358     0.10100
C860        C  0.12328089  0.40457806  0.24381722     0.36000
C861        C  0.16384516  0.30793361  0.17611282     0.39400
C862        C  0.16528188  0.36657182  0.28649162    -0.04100
C863        C  0.16476310  0.36625933  0.31629490     0.03000
C864        C  0.14487986  0.35192728  0.33083699    -0.03700
C865        C  0.12574355  0.33764153  0.31500963     0.00000
C866        C  0.12645394  0.33787043  0.28527967    -0.02500
C867        C  0.18562489  0.38130127  0.27169673     0.36700
C868        C  0.10444738  0.32411440  0.32908197     0.40400
C869        C  0.18493442  0.38039520  0.33184960     0.39500
C870        C  0.10674750  0.32331211  0.26926759     0.36400
C871        C  0.16663520  0.30467973  0.23599164     0.37100
C872        C  0.11808964  0.40727378  0.18424810     0.40300
N873        N  0.20103546  0.39173660  0.34420367    -0.37700
N874        N  0.20186482  0.39300006  0.25985398    -0.39300
N875        N  0.08735741  0.31343887  0.34018500    -0.37100
N876        N  0.09109152  0.31166571  0.25643881    -0.39400
N877        N  0.11489760  0.42380940  0.25776331    -0.39200
N878        N  0.10718801  0.42753663  0.17432120    -0.36800
N879        N  0.17227683  0.28806506  0.16298312    -0.37900
N880        N  0.17569839  0.28357238  0.24675268    -0.39600
C881        C  0.24519496  0.22763049  0.53040651    -0.04500
C882        C  0.24942797  0.25599966  0.51700092     0.09700
C883        C  0.27307686  0.26979818  0.51883299    -0.01900
C884        C  0.29242432  0.25543091  0.53417289    -0.00100
C885        C  0.28829628  0.22689604  0.54772806    -0.03800
C886        C  0.26457330  0.21289006  0.54534251     0.03300
C887        C  0.22900277  0.27124788  0.50057617     0.10100
C888        C  0.27740581  0.29893224  0.50489343     0.36000
C889        C  0.26030563  0.18251153  0.55691789     0.39400
C890        C  0.21218627  0.29129217  0.51416069    -0.04100
C891        C  0.19310077  0.30593826  0.49865936     0.03000
C892        C  0.19107892  0.30124897  0.46918341    -0.03700
C893        C  0.20777779  0.28074175  0.45573077     0.00000
C894        C  0.22654519  0.26568301  0.47142670    -0.02500
C895        C  0.21480784  0.29714325  0.54411013     0.36700
C896        C  0.20514052  0.27421066  0.42591505     0.40400
C897        C  0.17594051  0.32635899  0.51313028     0.39500
C898        C  0.24338509  0.24432026  0.45765948     0.36400
C899        C  0.22082220  0.21351897  0.52864239     0.37100
C900        C  0.31640933  0.27044654  0.53626991     0.40300
N901        N  0.16218284  0.34243197  0.52482578    -0.37700
N902        N  0.21697709  0.30186348  0.56798147    -0.39300
N903        N  0.20299639  0.26886908  0.40215065    -0.37100
N904        N  0.25683513  0.22719706  0.44679715    -0.39400
N905        N  0.28077705  0.32216104  0.49371014    -0.39200
N906        N  0.33554480  0.28244376  0.53783269    -0.36800
N907        N  0.25695933  0.15818882  0.56595784    -0.37900
N908        N  0.20135761  0.20232134  0.52732089    -0.39600
C909        C  0.01834908  0.65815480  0.57012714    -0.04500
C910        C  0.00571032  0.68376427  0.58143163     0.09700
C911        C  0.01939772  0.70905634  0.59151877    -0.01900
C912        C  0.04568888  0.70821564  0.59144394    -0.00100
C913        C  0.05843018  0.68193504  0.58128465    -0.03800
C914        C  0.04457864  0.65732602  0.56979448     0.03300
C915        C  0.97793973  0.68338799  0.58385749     0.10100
C916        C  0.00631191  0.73565281  0.60256742     0.36000
C917        C  0.05727401  0.63130126  0.55706122     0.39400
C918        C  0.96671840  0.67505645  0.60960974    -0.04100
C919        C  0.94057227  0.67352779  0.61184884     0.03000
C920        C  0.92539823  0.68020345  0.58820562    -0.03700
C921        C  0.93675182  0.68841706  0.56235282     0.00000
C922        C  0.96292396  0.69007424  0.56025755    -0.02500
C923        C  0.98221350  0.66738708  0.63366982     0.36700
C924        C  0.92165662  0.69345386  0.53740882     0.40400
C925        C  0.92939037  0.66529291  0.63864875     0.39500
C926        C  0.97451586  0.69790604  0.53360890     0.36400
C927        C  0.00426994  0.63231022  0.55940077     0.37100
C928        C  0.05945353  0.73390980  0.60293029     0.40300
N929        N  0.92051082  0.65861075  0.66000650    -0.37700
N930        N  0.99463699  0.66121584  0.65278548    -0.39300
N931        N  0.90959672  0.69729046  0.51749961    -0.37100
N932        N  0.98379814  0.70397342  0.51232188    -0.39400
N933        N  0.99580563  0.75680606  0.61141684    -0.39200
N934        N  0.07036182  0.75448962  0.61206844    -0.36800
N935        N  0.06742726  0.61063375  0.54681896    -0.37900
N936        N  0.99298820  0.61173540  0.55086615    -0.39600
C937        C  0.13474567  0.66195800  0.78532927    -0.04500
C938        C  0.14464666  0.68823978  0.77222341     0.09700
C939        C  0.15253536  0.71326488  0.78874478    -0.01900
C940        C  0.15080065  0.71187464  0.81841721    -0.00100
C941        C  0.14054995  0.68564802  0.83166182    -0.03800
C942        C  0.13257262  0.66064778  0.81486304     0.03300
C943        C  0.14613884  0.68938871  0.74080648     0.10100
C944        C  0.16207343  0.74059318  0.77510672     0.36000
C945        C  0.12115953  0.63390413  0.82769494     0.39400
C946        C  0.12538778  0.69941647  0.72512977    -0.04100
C947        C  0.12540427  0.69689105  0.69551994     0.03000
C948        C  0.14628585  0.68426822  0.68129331    -0.03700
C949        C  0.16725096  0.67464336  0.69714445     0.00000
C950        C  0.16721433  0.67748670  0.72679037    -0.02500
C951        C  0.10360544  0.71127555  0.73968083     0.36700
C952        C  0.18885529  0.66165127  0.68313106     0.40400
C953        C  0.10311468  0.70530212  0.68000429     0.39500
C954        C  0.18864292  0.66759694  0.74308985     0.36400
C955        C  0.12625379  0.63644379  0.76821374     0.37100
C956        C  0.16030731  0.73705846  0.83522283     0.40300
N957        N  0.08525341  0.71180941  0.66771093    -0.37700
N958        N  0.08623178  0.72062642  0.75134243    -0.39300
N959        N  0.20610564  0.65107505  0.67212401    -0.37100
N960        N  0.20567730  0.65981902  0.75624386    -0.39400
N961        N  0.16952752  0.76247951  0.76420887    -0.39200
N962        N  0.16801607  0.75708587  0.84861826    -0.36800
N963        N  0.11205854  0.61257481  0.83789378    -0.37900
N964        N  0.11943043  0.61618917  0.75450245    -0.39600
C965        C  0.16144818  0.47391059  0.50537537    -0.04500
C966        C  0.14651422  0.49921419  0.49762159     0.09700
C967        C  0.13086797  0.49714844  0.47382665    -0.01900
C968        C  0.12998026  0.46976471  0.45795467    -0.00100
C969        C  0.14448921  0.44406238  0.46609575    -0.03800
C970        C  0.16042612  0.44642009  0.48973537     0.03300
C971        C  0.14688639  0.52792906  0.51490675     0.10100
C972        C  0.11513869  0.52300781  0.46622230     0.36000
C973        C  0.17637725  0.42088024  0.49761026     0.39400
C974        C  0.16121917  0.55326533  0.50619253    -0.04100
C975        C  0.16107055  0.58059071  0.52212812     0.03000
C976        C  0.14639677  0.58283639  0.54683720    -0.03700
C977        C  0.13229787  0.55722869  0.55572702     0.00000
C978        C  0.13262766  0.52985928  0.53982688    -0.02500
C979        C  0.17597289  0.55122865  0.48064628     0.36700
C980        C  0.11637267  0.55946121  0.58035414     0.40400
C981        C  0.17640215  0.60622162  0.51328318     0.39500
C982        C  0.11782928  0.50379132  0.54869350     0.36400
C983        C  0.17775967  0.47617670  0.52964032     0.37100
C984        C  0.11329724  0.46771771  0.43400060     0.40300
N985        N  0.18863632  0.62666309  0.50627931    -0.37700
N986        N  0.18766758  0.54964172  0.46020344    -0.39300
N987        N  0.10356338  0.56124410  0.59991409    -0.37100
N988        N  0.10607504  0.48292367  0.55568001    -0.39400
N989        N  0.10255923  0.54365102  0.46029731    -0.39200
N990        N  0.09998139  0.46612837  0.41488949    -0.36800
N991        N  0.18929007  0.40070401  0.50393218    -0.37900
N992        N  0.19071962  0.47798745  0.54904136    -0.39600
C993        C  0.46234252  0.81652714  0.45961061    -0.04500
C994        C  0.47875541  0.83112908  0.44080839     0.09700
C995        C  0.46929011  0.84901016  0.41847776    -0.01900
C996        C  0.44342075  0.85269291  0.41510918    -0.00100
C997        C  0.42673657  0.83863246  0.43429852    -0.03800
C998        C  0.43638472  0.82006600  0.45632623     0.03300
C999        C  0.50620168  0.82933571  0.44509279     0.10100
C1000       C  0.48634830  0.86438901  0.39941756     0.36000
C1001       C  0.41981570  0.80568607  0.47650338     0.39400
C1002       C  0.52066074  0.80873403  0.42897192    -0.04100
C1003       C  0.54681594  0.81112385  0.42897129     0.03000
C1004       C  0.55849564  0.83423737  0.44510683    -0.03700
C1005       C  0.54403617  0.85309923  0.46305126     0.00000
C1006       C  0.51791718  0.85072719  0.46292960    -0.02500
C1007       C  0.50850049  0.78605489  0.41140208     0.36700
C1008       C  0.55602152  0.87509053  0.48153341     0.40400
C1009       C  0.56148256  0.79115691  0.41090896     0.39500
C1010       C  0.50296011  0.87120491  0.48018516     0.36400
C1011       C  0.47228113  0.79875256  0.48291413     0.37100
C1012       C  0.43417248  0.87078905  0.39161092     0.40300
N1013       N  0.57321228  0.77525062  0.39651456    -0.37700
N1014       N  0.49880430  0.76797618  0.39736085    -0.39300
N1015       N  0.56559506  0.89254567  0.49633599    -0.37100
N1016       N  0.49093310  0.88748611  0.49389207    -0.39400
N1017       N  0.50004375  0.87667382  0.38437509    -0.39200
N1018       N  0.42694193  0.88531305  0.37287415    -0.36800
N1019       N  0.40663839  0.79416450  0.49261678    -0.37900
N1020       N  0.48024039  0.78477665  0.50161914    -0.39600
C1021       C  0.34880848  0.87134155  0.29019400    -0.04500
C1022       C  0.33458342  0.84787022  0.27767315     0.09700
C1023       C  0.32211937  0.82643245  0.29484871    -0.01900
C1024       C  0.32367995  0.82861008  0.32447868    -0.00100
C1025       C  0.33752377  0.85253023  0.33711529    -0.03800
C1026       C  0.34998408  0.87399089  0.31977158     0.03300
C1027       C  0.33259404  0.84612858  0.24626390     0.10100
C1028       C  0.30777220  0.80206171  0.28192920     0.36000
C1029       C  0.36471169  0.89831577  0.33225027     0.39400
C1030       C  0.34784353  0.82568548  0.23096230    -0.04100
C1031       C  0.34767153  0.82611173  0.20121758     0.03000
C1032       C  0.33126217  0.84609627  0.18646799    -0.03700
C1033       C  0.31507475  0.86546045  0.20209637     0.00000
C1034       C  0.31618187  0.86592741  0.23178965    -0.02500
C1035       C  0.36403438  0.80451064  0.24594843     0.36700
C1036       C  0.29682562  0.88456931  0.18782703     0.40400
C1037       C  0.36545423  0.80708810  0.18609697     0.39500
C1038       C  0.30061834  0.88713091  0.24756731     0.36400
C1039       C  0.36276305  0.89232012  0.27250892     0.37100
C1040       C  0.31039204  0.80672523  0.34188743     0.40300
N1041       N  0.37980643  0.79202425  0.17418399    -0.37700
N1042       N  0.37674791  0.78743863  0.25794552    -0.39300
N1043       N  0.28219639  0.89971678  0.17646123    -0.37100
N1044       N  0.28836161  0.90420216  0.26016130    -0.39400
N1045       N  0.29644302  0.78255553  0.27155404    -0.39200
N1046       N  0.29977586  0.78926285  0.35575532    -0.36800
N1047       N  0.37637628  0.91779614  0.34218404    -0.37900
N1048       N  0.37401416  0.90886599  0.25834582    -0.39600
C1049       C  0.33380827  0.97401371  0.51840604    -0.04500
C1050       C  0.34399805  0.00064483  0.50603842     0.09700
C1051       C  0.35451456  0.99898583  0.47882416    -0.01900
C1052       C  0.35451041  0.97103405  0.46384563    -0.00100
C1053       C  0.34411315  0.94433927  0.47604634    -0.03800
C1054       C  0.33400174  0.94590376  0.50357366     0.03300
C1055       C  0.34364484  0.03057499  0.52161428     0.10100
C1056       C  0.36553328  0.02613060  0.46631218     0.36000
C1057       C  0.32313328  0.91885368  0.51642852     0.39400
C1058       C  0.36032009  0.03564320  0.54410307    -0.04100
C1059       C  0.36005145  0.06385494  0.55870990     0.03000
C1060       C  0.34342415  0.08751360  0.55053390    -0.03700
C1061       C  0.32716348  0.08265790  0.52750982     0.00000
C1062       C  0.32713287  0.05420499  0.51331210    -0.02500
C1063       C  0.37843795  0.01219526  0.55148009     0.36700
C1064       C  0.31027939  0.10681114  0.51843218     0.40400
C1065       C  0.37789941  0.06906625  0.58114713     0.39500
C1066       C  0.31036031  0.04935651  0.48977725     0.36400
C1067       C  0.32283541  0.97568573  0.54631556     0.37100
C1068       C  0.36612713  0.96960241  0.43625136     0.40300
N1069       N  0.39217572  0.07332142  0.59897098    -0.37700
N1070       N  0.39298935  0.99356691  0.55725943    -0.39300
N1071       N  0.29692737  0.12611660  0.51103118    -0.37100
N1072       N  0.29717596  0.04554697  0.47082747    -0.39400
N1073       N  0.37419406  0.04785809  0.45633922    -0.39200
N1074       N  0.37543071  0.96844427  0.41427041    -0.36800
N1075       N  0.31449255  0.89728764  0.52672907    -0.37900
N1076       N  0.31413827  0.97704141  0.56860239    -0.39600
C1077       C  0.27245089  0.75478446  0.48464776    -0.04500
C1078       C  0.25173695  0.76994708  0.49655053     0.09700
C1079       C  0.24909496  0.80196863  0.49344968    -0.01900
C1080       C  0.26735891  0.81897929  0.47900910    -0.00100
C1081       C  0.28865646  0.80403596  0.46781543    -0.03800
C1082       C  0.29096549  0.77174593  0.47049060     0.03300
C1083       C  0.23280906  0.75240399  0.51300149     0.10100
C1084       C  0.22759649  0.81742341  0.50549269     0.36000
C1085       C  0.31206229  0.75573741  0.45814741     0.39400
C1086       C  0.23437041  0.75129297  0.54265509    -0.04100
C1087       C  0.21585405  0.73614147  0.55841677     0.03000
C1088       C  0.19555607  0.72210709  0.54456939    -0.03700
C1089       C  0.19421609  0.72297176  0.51477490     0.00000
C1090       C  0.21286012  0.73797939  0.49907643    -0.02500
C1091       C  0.25504381  0.76596820  0.55689722     0.36700
C1092       C  0.17411602  0.70757819  0.50011908     0.40400
C1093       C  0.21733632  0.73589717  0.58894552     0.39500
C1094       C  0.21165637  0.73852021  0.46853662     0.36400
C1095       C  0.27462529  0.72167421  0.48697056     0.37100
C1096       C  0.26450183  0.85202992  0.47666317     0.40300
N1097       N  0.21851593  0.73572136  0.61329765    -0.37700
N1098       N  0.27155762  0.77772784  0.56816672    -0.39300
N1099       N  0.15810906  0.69527637  0.48840400    -0.37100
N1100       N  0.21083068  0.73886573  0.44416879    -0.39400
N1101       N  0.21045218  0.82964780  0.51519528    -0.39200
N1102       N  0.26212846  0.87837177  0.47475680    -0.36800
N1103       N  0.32889460  0.74295097  0.44833926    -0.37900
N1104       N  0.27626490  0.69523875  0.48868146    -0.39600
loop_ 
_geom_bond_atom_site_label_1 
_geom_bond_atom_site_label_2 
_geom_bond_distance 
_geom_bond_site_symmetry_2 
_ccdc_geom_bond_type 
O1            C4   1.267       .  A
O1           Cd6   2.462       .  S
C2           O11   1.264       .  A
C2            O7   1.266       .  A
C2         C1025   1.487       .  S
O3            C9   1.266       .  A
O3           Cd6   2.472       .  S
C4           O12   1.265       .  A
C4         C1053   1.489       .  S
C5           O10   1.266       .  A
C5            O8   1.265       .  A
C5         C1081   1.488       .  S
Cd6          O13   2.437       .  S
Cd6          O12   2.467       .  S
Cd6          O11   2.464       .  S
Cd6           O7   2.468       .  S
Cd6          O10   2.460       .  S
Cd6           O8   2.455       .  S
C9           O13   1.263       .  A
C9          C997   1.489       .  S
O14          C17   1.267       .  A
O14         Cd19   2.482       .  S
C15          O24   1.264       .  A
C15          O20   1.268       .  A
C15         C976   1.486       .  S
O16          C22   1.267       .  A
O16         Cd19   2.492       .  S
C17          O25   1.265       .  A
C17         C948   1.490       .  S
C18          O23   1.266       .  A
C18          O21   1.265       .  A
C18        C1088   1.486       .  S
Cd19         O26   2.436       .  S
Cd19         O25   2.455       .  S
Cd19         O24   2.439       .  S
Cd19         O20   2.481       .  S
Cd19         O23   2.464       .  S
Cd19         O21   2.460       .  S
C22          O26   1.264       .  A
C22         C913   1.489       .  S
O27          C30   1.267       .  A
O27         Cd32   2.484       .  S
C28          O37   1.263       .  A
C28          O33   1.266       .  A
C28         C969   1.487       .  S
O29          C35   1.266       .  A
O29         Cd32   2.496       .  S
C30          O38   1.266       .  A
C30         C864   1.496       .  S
C31          O36   1.264       .  A
C31          O34   1.266       .  A
C31         C892   1.492       .  S
Cd32         O39   2.450       .  S
Cd32         O38   2.465       .  S
Cd32         O37   2.457       .  S
Cd32         O33   2.488       .  S
Cd32         O36   2.471       .  S
Cd32         O34   2.488       .  S
C35          O39   1.263       .  A
C35         C829   1.493       .  S
O40          C43   1.266       .  A
O40         Cd45   2.470       .  S
C41          O50   1.264       .  A
C41          O46   1.267       .  A
C41        C1060   1.487       .  S
O42          C48   1.266       .  A
O42         Cd45   2.483       .  S
C43          O51   1.265       .  A
C43         C808   1.489       .  S
C44          O49   1.267       .  A
C44          O47   1.263       .  A
C44         C773   1.489       .  S
Cd45         O52   2.463       .  S
Cd45         O51   2.467       .  S
Cd45         O50   2.453       .  S
Cd45         O46   2.471       .  S
Cd45         O49   2.494       .  S
Cd45         O47   2.438       .  S
C48          O52   1.265       .  A
C48         C885   1.495       .  S
O53          C56   1.266       .  A
O53         Cd58   2.485       .  S
C54          O63   1.267       .  A
C54          O59   1.267       .  A
C54         C857   1.499       .  S
O55          C61   1.269       .  A
O55         Cd58   2.499       .  S
C56          O64   1.262       .  A
C56         C717   1.483       .  S
C57          O62   1.266       .  A
C57          O60   1.264       .  A
C57         C752   1.488       .  S
Cd58         O65   2.449       .  S
Cd58         O64   2.449       .  S
Cd58         O63   2.486       .  S
Cd58         O59   2.473       .  S
Cd58         O62   2.479       .  S
Cd58         O60   2.473       .  S
C61          O65   1.265       .  A
C61         C689   1.491       .  S
O66          C69   1.265       .  A
O66         Cd71   2.468       .  S
C67          O76   1.265       .  A
C67          O72   1.265       .  A
C67         C661   1.488       .  S
O68          C74   1.266       .  A
O68         Cd71   2.473       .  S
C69          O77   1.265       .  A
C69         C801   1.489       .  S
C70          O75   1.265       .  A
C70          O73   1.266       .  A
C70         C745   1.492       .  S
Cd71         O78   2.442       .  S
Cd71         O77   2.467       .  S
Cd71         O76   2.462       .  S
Cd71         O72   2.469       .  S
Cd71         O75   2.471       .  S
Cd71         O73   2.462       .  S
C74          O78   1.264       .  A
C74         C633   1.485       .  S
O79          C82   1.265       .  A
O79         Cd84   2.463       .  S
C80          O89   1.265       .  A
C80          O85   1.267       .  A
C80         C668   1.483       .  S
O81          C87   1.266       .  A
O81         Cd84   2.480       .  S
C82          O90   1.264       .  A
C82        C1032   1.495       .  S
C83          O88   1.266       .  A
C83          O86   1.267       .  A
C83         C612   1.489       .  S
Cd84         O91   2.426       .  S
Cd84         O90   2.468       .  S
Cd84         O89   2.451       .  S
Cd84         O85   2.466       .  S
Cd84         O88   2.443       .  S
Cd84         O86   2.467       .  S
C87          O91   1.262       .  A
C87         C584   1.485       .  S
O92          C95   1.265       .  A
O92         Cd97   2.456       .  S
C93         O102   1.266       .  A
C93          O98   1.264       .  A
C93         C941   1.488       .  S
O94         C100   1.268       .  A
O94         Cd97   2.487       .  S
C95         O103   1.266       .  A
C95         C724   1.494       .  S
C96         O101   1.266       .  A
C96          O99   1.263       .  A
C96         C605   1.485       .  S
Cd97        O104   2.443       .  S
Cd97        O103   2.457       .  S
Cd97        O102   2.475       .  S
Cd97         O98   2.439       .  S
Cd97        O101   2.482       .  S
Cd97         O99   2.441       .  S
C100        O104   1.264       .  A
C100        C549   1.492       .  S
O105        C108   1.266       .  A
O105       Cd110   2.478       .  S
C106        O115   1.264       .  A
C106        O111   1.267       .  A
C106        C500   1.487       .  S
O107        C113   1.266       .  A
O107       Cd110   2.465       .  S
C108        O116   1.263       .  A
C108        C465   1.490       .  S
C109        O114   1.265       .  A
C109        O112   1.265       .  A
C109        C528   1.487       .  S
Cd110       O117   2.429       .  S
Cd110       O116   2.466       .  S
Cd110       O115   2.453       .  S
Cd110       O111   2.466       .  S
Cd110       O114   2.446       .  S
Cd110       O112   2.458       .  S
C113        O117   1.264       .  A
C113       C1004   1.479       .  S
O118        C121   1.266       .  A
O118       Cd123   2.469       .  S
C119        O128   1.263       .  A
C119        O124   1.267       .  A
C119        C444   1.484       .  S
O120        C126   1.266       .  A
O120       Cd123   2.475       .  S
C121        O129   1.266       .  A
C121        C416   1.493       .  S
C122        O127   1.268       .  A
C122        O125   1.265       .  A
C122        C920   1.488       .  S
Cd123       O130   2.454       .  S
Cd123       O129   2.465       .  S
Cd123       O128   2.445       .  S
Cd123       O124   2.472       .  S
Cd123       O127   2.471       .  S
Cd123       O125   2.442       .  S
C126        O130   1.264       .  A
C126        C521   1.487       .  S
O131        C134   1.264       .  A
O131       Cd136   2.447       .  S
C132        O141   1.264       .  A
C132        O137   1.264       .  A
C132        C437   1.485       .  S
O133        C139   1.264       .  A
O133       Cd136   2.456       .  S
C134        O142   1.267       .  A
C134        C353   1.490       .  S
C135        O140   1.266       .  A
C135        O138   1.265       .  A
C135        C836   1.488       .  S
Cd136       O143   2.465       .  S
Cd136       O142   2.472       .  S
Cd136       O141   2.460       .  S
Cd136       O137   2.466       .  S
Cd136       O140   2.476       .  S
Cd136       O138   2.447       .  S
C139        O143   1.265       .  A
C139        C381   1.489       .  S
O144        C147   1.267       .  A
O144       Cd149   2.471       .  S
C145        O154   1.264       .  A
C145        O150   1.266       .  A
C145        C493   1.482       .  S
O146        C152   1.267       .  A
O146       Cd149   2.492       .  S
C147        O155   1.265       .  A
C147        C325   1.493       .  S
C148        O153   1.266       .  A
C148        O151   1.265       .  A
C148        C388   1.494       .  S
Cd149       O156   2.435       .  S
Cd149       O155   2.462       .  S
Cd149       O154   2.449       .  S
Cd149       O150   2.462       .  S
Cd149       O153   2.459       .  S
Cd149       O151   2.467       .  S
C152        O156   1.264       .  A
C152        C780   1.490       .  S
O157        C160   1.265       .  A
O157       Cd162   2.465       .  S
C158        O167   1.266       .  A
C158        O163   1.266       .  A
C158        C269   1.489       .  S
O159        C165   1.267       .  A
O159       Cd162   2.504       .  S
C160        O168   1.266       .  A
C160        C360   1.490       .  S
C161        O166   1.266       .  A
C161        O164   1.264       .  A
C161        C297   1.491       .  S
Cd162       O169   2.460       .  S
Cd162       O168   2.469       .  S
Cd162       O167   2.459       .  S
Cd162       O163   2.460       .  S
Cd162       O166   2.476       .  S
Cd162       O164   2.465       .  S
C165        O169   1.264       .  A
C165        C696   1.495       .  S
O170        C173   1.266       .  A
O170       Cd175   2.469       .  S
C171        O180   1.265       .  A
C171        O176   1.264       .  A
C171        C332   1.492       .  S
O172        C178   1.267       .  A
O172       Cd175   2.488       .  S
C173        O181   1.265       .  A
C173        C248   1.489       .  S
C174        O179   1.266       .  A
C174        O177   1.264       .  A
C174        C304   1.489       .  S
Cd175       O182   2.430       .  S
Cd175       O181   2.446       .  S
Cd175       O180   2.487       .  S
Cd175       O176   2.463       .  S
Cd175       O179   2.481       .  S
Cd175       O177   2.443       .  S
C178        O182   1.264       .  A
C178        C640   1.485       .  S
O183        C186   1.267       .  A
O183       Cd188   2.458       .  S
C184        O193   1.263       .  A
C184        O189   1.266       .  A
C184        C472   1.489       .  S
O185        C191   1.267       .  A
O185       Cd188   2.477       .  S
C186        O194   1.266       .  A
C186        C241   1.483       .  S
C187        O192   1.266       .  A
C187        O190   1.262       .  A
C187        C220   1.496       .  S
Cd188       O195   2.430       .  S
Cd188       O194   2.449       .  S
Cd188       O193   2.452       .  S
Cd188       O189   2.472       .  S
Cd188       O192   2.479       .  S
Cd188       O190   2.439       .  S
C191        O195   1.264       .  A
C191        C577   1.486       .  S
O196        C199   1.264       .  A
O196       Cd201   2.468       .  S
C197        O206   1.262       .  A
C197        O202   1.267       .  A
C197        C276   1.484       .  S
O198        C204   1.268       .  A
O198       Cd201   2.485       .  S
C199        O207   1.265       .  A
C199        C409   1.490       .  S
C200        O205   1.264       .  A
C200        O203   1.265       .  A
C200        C213   1.490       .  S
Cd201       O208   2.431       .  S
Cd201       O207   2.489       .  S
Cd201       O206   2.429       .  S
Cd201       O202   2.492       .  S
Cd201       O205   2.470       .  S
Cd201       O203   2.476       .  S
C204        O208   1.263       .  A
C204        C556   1.486       .  S
C209        C210   1.409       .  A
C209        C214   1.411       .  A
C209        C227   1.451       .  S
C210        C215   1.495       .  S
C210        C211   1.410   1_554  A
C211        C212   1.410       .  A
C211        C216   1.451       .  S
C212        C213   1.415       .  A
C212        C228   1.451       .  S
C213        C214   1.418   1_556  A
C214        C217   1.451       .  S
C215        C218   1.407       .  A
C215        C222   1.409       .  A
C216        N233   1.157       .  T
C217        N235   1.157       .  T
C218        C219   1.410       .  A
C218        C223   1.451       .  S
C219        C220   1.422       .  A
C219        C225   1.452       .  S
C220        C221   1.420       .  A
C221        C222   1.411       .  A
C221        C224   1.451       .  S
C222        C226   1.451       .  S
C223        N230   1.157       .  T
C224        N231   1.158       .  T
C225        N229   1.158       .  T
C226        N232   1.157       .  T
C227        N236   1.157       .  T
C228        N234   1.157       .  T
C237        C238   1.411   1_565  A
C237        C242   1.411       .  A
C237        C255   1.450   1_565  S
C238        C243   1.495       .  S
C238        C239   1.411   1_545  A
C239        C240   1.409       .  A
C239        C244   1.451   1_565  S
C240        C241   1.413       .  A
C240        C256   1.451       .  S
C241        C242   1.414       .  A
C242        C245   1.451       .  S
C243        C246   1.410   1_554  A
C243        C250   1.409       .  A
C244        N261   1.157   1_554  T
C245        N263   1.157       .  T
C246        C247   1.411       .  A
C246        C251   1.451       .  S
C247        C248   1.417       .  A
C247        C253   1.451       .  S
C248        C249   1.417   1_556  A
C249        C250   1.409       .  A
C249        C252   1.451       .  S
C250        C254   1.451       .  S
C251        N258   1.157   1_545  T
C252        N259   1.158       .  T
C253        N257   1.157       .  T
C254        N260   1.157       .  T
C255        N264   1.157       .  T
C256        N262   1.157       .  T
C265        C266   1.409       .  A
C265        C270   1.410       .  A
C265        C283   1.451       .  S
C266        C271   1.493   1_554  S
C266        C267   1.408       .  A
C267        C268   1.410       .  A
C267        C272   1.451   1_554  S
C268        C269   1.417       .  A
C268        C284   1.451       .  S
C269        C270   1.417       .  A
C270        C273   1.451       .  S
C271        C274   1.409       .  A
C271        C278   1.410       .  A
C272        N289   1.157       .  T
C273        N291   1.158       .  T
C274        C275   1.408       .  A
C274        C279   1.452       .  S
C275        C276   1.416       .  A
C275        C281   1.452       .  S
C276        C277   1.415       .  A
C277        C278   1.412       .  A
C277        C280   1.450       .  S
C278        C282   1.450   1_556  S
C279        N286   1.157       .  T
C280        N287   1.157       .  T
C281        N285   1.157       .  T
C282        N288   1.157       .  T
C283        N292   1.157       .  T
C284        N290   1.157   1_554  T
C293        C294   1.409       .  A
C293        C298   1.410       .  A
C293        C311   1.451   1_554  S
C294        C299   1.495       .  S
C294        C295   1.409       .  A
C295        C296   1.412       .  A
C295        C300   1.451       .  S
C296        C297   1.418       .  A
C296        C312   1.451       .  S
C297        C298   1.417       .  A
C298        C301   1.451       .  S
C299        C302   1.409       .  A
C299        C306   1.410   1_554  A
C300        N317   1.157       .  T
C301        N319   1.157   1_554  T
C302        C303   1.409   1_554  A
C302        C307   1.451       .  S
C303        C304   1.417       .  A
C303        C309   1.452       .  S
C304        C305   1.416       .  A
C305        C306   1.412       .  A
C305        C308   1.451       .  S
C306        C310   1.451       .  S
C307        N314   1.157       .  T
C308        N315   1.158       .  T
C309        N313   1.157       .  T
C310        N316   1.157       .  T
C311        N320   1.157       .  T
C312        N318   1.157       .  T
C321        C322   1.409       .  A
C321        C326   1.412       .  A
C321        C339   1.450       .  S
C322        C327   1.496       .  S
C322        C323   1.408       .  A
C323        C324   1.411       .  A
C323        C328   1.451       .  S
C324        C325   1.419       .  A
C324        C340   1.451       .  S
C325        C326   1.418       .  A
C326        C329   1.451       .  S
C327        C330   1.409       .  A
C327        C334   1.409       .  A
C328        N345   1.157       .  T
C329        N347   1.157       .  T
C330        C331   1.413       .  A
C330        C335   1.450       .  S
C331        C332   1.417       .  A
C331        C337   1.450       .  S
C332        C333   1.418       .  A
C333        C334   1.410       .  A
C333        C336   1.451       .  S
C334        C338   1.452       .  S
C335        N342   1.157       .  T
C336        N343   1.157       .  T
C337        N341   1.157       .  T
C338        N344   1.157       .  T
C339        N348   1.157       .  T
C340        N346   1.157       .  T
C349        C350   1.409       .  A
C349        C354   1.410       .  A
C349        C367   1.451       .  S
C350        C355   1.494       .  S
C350        C351   1.409       .  A
C351        C352   1.411       .  A
C351        C356   1.450       .  S
C352        C353   1.417       .  A
C352        C368   1.450       .  S
C353        C354   1.418       .  A
C354        C357   1.452       .  S
C355        C358   1.409       .  A
C355        C362   1.409       .  A
C356        N373   1.157       .  T
C357        N375   1.157       .  T
C358        C359   1.409       .  A
C358        C363   1.452       .  S
C359        C360   1.416       .  A
C359        C365   1.451       .  S
C360        C361   1.417       .  A
C361        C362   1.412       .  A
C361        C364   1.451       .  S
C362        C366   1.450       .  S
C363        N370   1.157       .  T
C364        N371   1.157       .  T
C365        N369   1.157       .  T
C366        N372   1.157       .  T
C367        N376   1.157       .  T
C368        N374   1.157       .  T
C377        C378   1.409       .  A
C377        C382   1.410       .  A
C377        C395   1.451       .  S
C378        C383   1.494       .  S
C378        C379   1.408       .  A
C379        C380   1.410       .  A
C379        C384   1.451       .  S
C380        C381   1.419       .  A
C380        C396   1.452       .  S
C381        C382   1.417       .  A
C382        C385   1.451       .  S
C383        C386   1.408       .  A
C383        C390   1.409       .  A
C384        N401   1.157       .  T
C385        N403   1.157       .  T
C386        C387   1.411       .  A
C386        C391   1.452       .  S
C387        C388   1.421       .  A
C387        C393   1.451       .  S
C388        C389   1.418       .  A
C389        C390   1.410       .  A
C389        C392   1.451       .  S
C390        C394   1.451       .  S
C391        N398   1.157       .  T
C392        N399   1.157       .  T
C393        N397   1.158       .  T
C394        N400   1.157       .  T
C395        N404   1.157       .  T
C396        N402   1.157       .  T
C405        C406   1.410       .  A
C405        C410   1.410       .  A
C405        C423   1.452       .  S
C406        C411   1.497       .  S
C406        C407   1.410       .  A
C407        C408   1.414       .  A
C407        C412   1.450       .  S
C408        C409   1.416       .  A
C408        C424   1.450       .  S
C409        C410   1.416       .  A
C410        C413   1.451       .  S
C411        C414   1.409       .  A
C411        C418   1.409       .  A
C412        N429   1.157       .  T
C413        N431   1.157       .  T
C414        C415   1.412       .  A
C414        C419   1.451       .  S
C415        C416   1.418       .  A
C415        C421   1.451       .  S
C416        C417   1.419       .  A
C417        C418   1.411       .  A
C417        C420   1.451       .  S
C418        C422   1.451       .  S
C419        N426   1.157       .  T
C420        N427   1.157       .  T
C421        N425   1.157       .  T
C422        N428   1.157       .  T
C423        N432   1.157       .  T
C424        N430   1.157       .  T
C433        C434   1.410       .  A
C433        C438   1.410       .  A
C433        C451   1.451       .  S
C434        C439   1.493       .  S
C434        C435   1.409       .  A
C435        C436   1.409       .  A
C435        C440   1.451       .  S
C436        C437   1.415       .  A
C436        C452   1.451       .  S
C437        C438   1.416       .  A
C438        C441   1.451       .  S
C439        C442   1.410       .  A
C439        C446   1.410       .  A
C440        N457   1.157       .  T
C441        N459   1.157       .  T
C442        C443   1.410       .  A
C442        C447   1.450       .  S
C443        C444   1.414       .  A
C443        C449   1.451       .  S
C444        C445   1.416       .  A
C445        C446   1.409       .  A
C445        C448   1.452       .  S
C446        C450   1.451       .  S
C447        N454   1.157       .  T
C448        N455   1.158       .  T
C449        N453   1.157       .  T
C450        N456   1.157       .  T
C451        N460   1.157       .  T
C452        N458   1.157       .  T
C461        C462   1.411       .  A
C461        C466   1.411       .  A
C461        C479   1.452       .  S
C462        C467   1.498       .  S
C462        C463   1.411       .  A
C463        C464   1.412       .  A
C463        C468   1.450       .  S
C464        C465   1.415       .  A
C464        C480   1.451       .  S
C465        C466   1.417       .  A
C466        C469   1.451       .  S
C467        C470   1.412       .  A
C467        C474   1.410       .  A
C468        N485   1.157       .  T
C469        N487   1.157       .  T
C470        C471   1.410       .  A
C470        C475   1.451       .  S
C471        C472   1.416       .  A
C471        C477   1.451       .  S
C472        C473   1.417       .  A
C473        C474   1.411       .  A
C473        C476   1.452       .  S
C474        C478   1.451       .  S
C475        N482   1.157       .  T
C476        N483   1.157       .  T
C477        N481   1.157       .  T
C478        N484   1.157       .  T
C479        N488   1.157       .  T
C480        N486   1.157       .  T
C489        C490   1.410       .  A
C489        C494   1.409       .  A
C489        C507   1.451       .  S
C490        C495   1.492       .  S
C490        C491   1.409       .  A
C491        C492   1.409       .  A
C491        C496   1.451       .  S
C492        C493   1.415       .  A
C492        C508   1.451       .  S
C493        C494   1.414       .  A
C494        C497   1.451       .  S
C495        C498   1.409   1_545  A
C495        C502   1.408   1_545  A
C496        N513   1.157       .  T
C497        N515   1.157       .  T
C498        C499   1.410       .  A
C498        C503   1.451   1_565  S
C499        C500   1.416       .  A
C499        C505   1.451       .  S
C500        C501   1.416       .  A
C501        C502   1.409       .  A
C501        C504   1.450       .  S
C502        C506   1.452       .  S
C503        N510   1.157       .  T
C504        N511   1.157       .  T
C505        N509   1.157       .  T
C506        N512   1.157       .  T
C507        N516   1.157   1_545  T
C508        N514   1.157       .  T
C517        C518   1.410       .  A
C517        C522   1.410       .  A
C517        C535   1.451       .  S
C518        C523   1.494       .  S
C518        C519   1.410       .  A
C519        C520   1.410       .  A
C519        C524   1.451       .  S
C520        C521   1.416       .  A
C520        C536   1.451       .  S
C521        C522   1.416       .  A
C522        C525   1.451       .  S
C523        C526   1.410       .  A
C523        C530   1.409       .  A
C524        N541   1.157       .  T
C525        N543   1.157       .  T
C526        C527   1.410       .  A
C526        C531   1.451       .  S
C527        C528   1.417       .  A
C527        C533   1.452       .  S
C528        C529   1.417       .  A
C529        C530   1.409       .  A
C529        C532   1.451       .  S
C530        C534   1.452       .  S
C531        N538   1.157       .  T
C532        N539   1.157       .  T
C533        N537   1.157       .  T
C534        N540   1.157       .  T
C535        N544   1.157       .  T
C536        N542   1.157       .  T
C545        C546   1.410   1_455  A
C545        C550   1.410       .  A
C545        C563   1.452   1_455  S
C546        C551   1.496       .  S
C546        C547   1.409   1_655  A
C547        C548   1.412       .  A
C547        C552   1.451   1_455  S
C548        C549   1.418       .  A
C548        C564   1.450       .  S
C549        C550   1.418       .  A
C550        C553   1.452       .  S
C551        C554   1.410       .  A
C551        C558   1.411       .  A
C552        N569   1.157   1_556  T
C553        N571   1.158       .  T
C554        C555   1.409       .  A
C554        C559   1.451       .  S
C555        C556   1.416       .  A
C555        C561   1.452       .  S
C556        C557   1.414       .  A
C557        C558   1.411       .  A
C557        C560   1.450       .  S
C558        C562   1.450       .  S
C559        N566   1.157       .  T
C560        N567   1.157       .  T
C561        N565   1.157       .  T
C562        N568   1.157       .  T
C563        N572   1.157       .  T
C564        N570   1.157       .  T
C573        C574   1.409       .  A
C573        C578   1.407       .  A
C573        C591   1.452       .  S
C574        C579   1.491       .  S
C574        C575   1.409       .  A
C575        C576   1.411       .  A
C575        C580   1.451       .  S
C576        C577   1.416       .  A
C576        C592   1.450       .  S
C577        C578   1.417       .  A
C578        C581   1.452       .  S
C579        C582   1.409       .  A
C579        C586   1.409       .  A
C580        N597   1.157       .  T
C581        N599   1.157       .  T
C582        C583   1.406       .  A
C582        C587   1.452       .  S
C583        C584   1.416       .  A
C583        C589   1.452       .  S
C584        C585   1.416       .  A
C585        C586   1.411       .  A
C585        C588   1.451       .  S
C586        C590   1.450       .  S
C587        N594   1.157       .  T
C588        N595   1.157       .  T
C589        N593   1.157       .  T
C590        N596   1.157       .  T
C591        N600   1.157       .  T
C592        N598   1.157       .  T
C601        C602   1.408       .  A
C601        C606   1.408   1_554  A
C601        C619   1.451       .  S
C602        C607   1.493       .  S
C602        C603   1.411   1_554  A
C603        C604   1.411       .  A
C603        C608   1.451       .  S
C604        C605   1.414       .  A
C604        C620   1.451       .  S
C605        C606   1.417       .  A
C606        C609   1.452       .  S
C607        C610   1.408       .  A
C607        C614   1.409       .  A
C608        N625   1.157       .  T
C609        N627   1.157       .  T
C610        C611   1.409       .  A
C610        C615   1.451   1_554  S
C611        C612   1.419       .  A
C611        C617   1.452       .  S
C612        C613   1.417       .  A
C613        C614   1.411       .  A
C613        C616   1.451       .  S
C614        C618   1.451       .  S
C615        N622   1.157       .  T
C616        N623   1.157       .  T
C617        N621   1.157       .  T
C618        N624   1.157       .  T
C619        N628   1.157       .  T
C620        N626   1.158       .  T
C629        C630   1.409       .  A
C629        C634   1.411       .  A
C629        C647   1.450       .  S
C630        C635   1.491       .  S
C630        C631   1.409       .  A
C631        C632   1.408       .  A
C631        C636   1.452       .  S
C632        C633   1.416       .  A
C632        C648   1.452       .  S
C633        C634   1.416       .  A
C634        C637   1.451       .  S
C635        C638   1.408       .  A
C635        C642   1.410       .  A
C636        N653   1.157       .  T
C637        N655   1.157       .  T
C638        C639   1.407       .  A
C638        C643   1.451       .  S
C639        C640   1.417       .  A
C639        C645   1.452       .  S
C640        C641   1.415       .  A
C641        C642   1.412       .  A
C641        C644   1.450       .  S
C642        C646   1.450       .  S
C643        N650   1.157       .  T
C644        N651   1.157       .  T
C645        N649   1.157       .  T
C646        N652   1.157       .  T
C647        N656   1.157       .  T
C648        N654   1.157       .  T
C657        C658   1.410       .  A
C657        C662   1.411       .  A
C657        C675   1.451   1_545  S
C658        C663   1.494   1_546  S
C658        C659   1.409   1_556  A
C659        C660   1.409   1_554  A
C659        C664   1.451       .  S
C660        C661   1.416       .  A
C660        C676   1.451   1_556  S
C661        C662   1.417       .  A
C662        C665   1.451       .  S
C663        C666   1.410       .  A
C663        C670   1.410       .  A
C664        N681   1.157       .  T
C665        N683   1.158       .  T
C666        C667   1.409       .  A
C666        C671   1.451   1_565  S
C667        C668   1.414       .  A
C667        C673   1.451       .  S
C668        C669   1.415       .  A
C669        C670   1.411       .  A
C669        C672   1.451       .  S
C670        C674   1.450   1_554  S
C671        N678   1.157       .  T
C672        N679   1.157       .  T
C673        N677   1.157       .  T
C674        N680   1.157       .  T
C675        N684   1.157       .  T
C676        N682   1.157       .  T
C685        C686   1.412   1_455  A
C685        C690   1.411       .  A
C685        C703   1.451   1_455  S
C686        C691   1.502       .  S
C686        C687   1.411   1_655  A
C687        C688   1.415       .  A
C687        C692   1.450       .  S
C688        C689   1.416       .  A
C688        C704   1.450       .  S
C689        C690   1.415       .  A
C690        C693   1.452       .  S
C691        C694   1.411       .  A
C691        C698   1.411       .  A
C692        N709   1.157   1_455  T
C693        N711   1.157       .  T
C694        C695   1.412       .  A
C694        C699   1.451       .  S
C695        C696   1.418       .  A
C695        C701   1.452       .  S
C696        C697   1.417       .  A
C697        C698   1.414       .  A
C697        C700   1.450       .  S
C698        C702   1.450       .  S
C699        N706   1.157       .  T
C700        N707   1.157       .  T
C701        N705   1.158       .  T
C702        N708   1.157       .  T
C703        N712   1.157       .  T
C704        N710   1.157       .  T
C713        C714   1.409       .  A
C713        C718   1.409       .  A
C713        C731   1.451       .  S
C714        C719   1.494   1_554  S
C714        C715   1.411       .  A
C715        C716   1.411       .  A
C715        C720   1.450       .  S
C716        C717   1.414       .  A
C716        C732   1.451       .  S
C717        C718   1.415       .  A
C718        C721   1.451       .  S
C719        C722   1.408   1_556  A
C719        C726   1.408       .  A
C720        N737   1.157       .  T
C721        N739   1.157       .  T
C722        C723   1.410   1_554  A
C722        C727   1.452       .  S
C723        C724   1.420       .  A
C723        C729   1.451   1_556  S
C724        C725   1.420       .  A
C725        C726   1.411       .  A
C725        C728   1.452       .  S
C726        C730   1.451       .  S
C727        N734   1.157       .  T
C728        N735   1.157       .  T
C729        N733   1.158       .  T
C730        N736   1.157       .  T
C731        N740   1.157       .  T
C732        N738   1.157       .  T
C741        C742   1.410       .  A
C741        C746   1.413       .  A
C741        C759   1.451       .  S
C742        C747   1.497   1_556  S
C742        C743   1.409       .  A
C743        C744   1.410       .  A
C743        C748   1.451   1_556  S
C744        C745   1.418       .  A
C744        C760   1.452       .  S
C745        C746   1.418       .  A
C746        C749   1.451       .  S
C747        C750   1.411   1_554  A
C747        C754   1.410       .  A
C748        N765   1.157       .  T
C749        N767   1.158       .  T
C750        C751   1.412   1_556  A
C750        C755   1.450       .  S
C751        C752   1.415       .  A
C751        C757   1.451   1_554  S
C752        C753   1.415       .  A
C753        C754   1.411       .  A
C753        C756   1.450       .  S
C754        C758   1.451       .  S
C755        N762   1.157       .  T
C756        N763   1.157       .  T
C757        N761   1.157       .  T
C758        N764   1.157       .  T
C759        N768   1.157       .  T
C760        N766   1.157       .  T
C769        C770   1.412       .  A
C769        C774   1.413       .  A
C769        C787   1.451       .  S
C770        C775   1.500       .  S
C770        C771   1.412       .  A
C771        C772   1.409       .  A
C771        C776   1.452       .  S
C772        C773   1.415       .  A
C772        C788   1.452       .  S
C773        C774   1.416       .  A
C774        C777   1.450       .  S
C775        C778   1.411       .  A
C775        C782   1.412       .  A
C776        N793   1.157       .  T
C777        N795   1.157       .  T
C778        C779   1.409       .  A
C778        C783   1.451       .  S
C779        C780   1.417       .  A
C779        C785   1.452       .  S
C780        C781   1.416       .  A
C781        C782   1.413       .  A
C781        C784   1.450       .  S
C782        C786   1.451       .  S
C783        N790   1.157       .  T
C784        N791   1.157       .  T
C785        N789   1.157       .  T
C786        N792   1.157       .  T
C787        N796   1.157       .  T
C788        N794   1.157       .  T
C797        C798   1.409       .  A
C797        C802   1.410       .  A
C797        C815   1.451       .  S
C798        C803   1.495       .  S
C798        C799   1.409       .  A
C799        C800   1.412       .  A
C799        C804   1.450       .  S
C800        C801   1.416       .  A
C800        C816   1.451       .  S
C801        C802   1.417       .  A
C802        C805   1.451       .  S
C803        C806   1.409       .  A
C803        C810   1.410       .  A
C804        N821   1.157       .  T
C805        N823   1.157       .  T
C806        C807   1.412       .  A
C806        C811   1.450       .  S
C807        C808   1.416       .  A
C807        C813   1.451       .  S
C808        C809   1.416       .  A
C809        C810   1.410       .  A
C809        C812   1.451       .  S
C810        C814   1.452       .  S
C811        N818   1.157       .  T
C812        N819   1.157       .  T
C813        N817   1.157       .  T
C814        N820   1.157       .  T
C815        N824   1.157       .  T
C816        N822   1.157       .  T
C825        C826   1.409       .  A
C825        C830   1.409       .  A
C825        C843   1.452   1_455  S
C826        C831   1.496   1_455  S
C826        C827   1.409       .  A
C827        C828   1.413       .  A
C827        C832   1.451       .  S
C828        C829   1.419       .  A
C828        C844   1.450       .  S
C829        C830   1.418       .  A
C830        C833   1.452       .  S
C831        C834   1.410       .  A
C831        C838   1.410       .  A
C832        N849   1.157   1_455  T
C833        N851   1.157       .  T
C834        C835   1.410       .  A
C834        C839   1.451       .  S
C835        C836   1.416       .  A
C835        C841   1.452       .  S
C836        C837   1.417       .  A
C837        C838   1.412       .  A
C837        C840   1.451       .  S
C838        C842   1.450       .  S
C839        N846   1.157       .  T
C840        N847   1.157       .  T
C841        N845   1.158       .  T
C842        N848   1.157       .  T
C843        N852   1.157       .  T
C844        N850   1.157       .  T
C853        C854   1.409       .  A
C853        C858   1.414       .  A
C853        C871   1.451       .  S
C854        C859   1.500       .  S
C854        C855   1.409       .  A
C855        C856   1.412       .  A
C855        C860   1.451       .  S
C856        C857   1.419       .  A
C856        C872   1.451       .  S
C857        C858   1.420       .  A
C858        C861   1.450       .  S
C859        C862   1.410       .  A
C859        C866   1.409       .  A
C860        N877   1.157       .  T
C861        N879   1.157       .  T
C862        C863   1.415       .  A
C862        C867   1.450       .  S
C863        C864   1.418       .  A
C863        C869   1.451       .  S
C864        C865   1.419       .  A
C865        C866   1.411       .  A
C865        C868   1.451       .  S
C866        C870   1.451       .  S
C867        N874   1.157       .  T
C868        N875   1.157       .  T
C869        N873   1.157       .  T
C870        N876   1.157       .  T
C871        N880   1.157       .  T
C872        N878   1.157       .  T
C881        C882   1.409       .  A
C881        C886   1.412       .  A
C881        C899   1.451       .  S
C882        C887   1.499       .  S
C882        C883   1.410       .  A
C883        C884   1.413       .  A
C883        C888   1.450       .  S
C884        C885   1.418       .  A
C884        C900   1.451       .  S
C885        C886   1.420       .  A
C886        C889   1.452       .  S
C887        C890   1.410       .  A
C887        C894   1.411       .  A
C888        N905   1.157       .  T
C889        N907   1.158       .  T
C890        C891   1.412       .  A
C890        C895   1.451       .  S
C891        C892   1.418       .  A
C891        C897   1.451       .  S
C892        C893   1.415       .  A
C893        C894   1.413       .  A
C893        C896   1.450       .  S
C894        C898   1.450       .  S
C895        N902   1.157       .  T
C896        N903   1.157       .  T
C897        N901   1.157       .  T
C898        N904   1.157       .  T
C899        N908   1.157       .  T
C900        N906   1.157       .  T
C909        C910   1.409       .  A
C909        C914   1.409       .  A
C909        C927   1.451       .  S
C910        C915   1.496   1_455  S
C910        C911   1.411       .  A
C911        C912   1.412       .  A
C911        C916   1.451       .  S
C912        C913   1.416       .  A
C912        C928   1.450       .  S
C913        C914   1.417       .  A
C914        C917   1.452       .  S
C915        C918   1.410       .  A
C915        C922   1.410       .  A
C916        N933   1.157   1_455  T
C917        N935   1.158       .  T
C918        C919   1.410       .  A
C918        C923   1.451       .  S
C919        C920   1.416       .  A
C919        C925   1.452       .  S
C920        C921   1.416       .  A
C921        C922   1.411       .  A
C921        C924   1.451       .  S
C922        C926   1.450       .  S
C923        N930   1.157       .  T
C924        N931   1.157       .  T
C925        N929   1.158       .  T
C926        N932   1.157       .  T
C927        N936   1.157   1_455  T
C928        N934   1.157       .  T
C937        C938   1.409       .  A
C937        C942   1.407       .  A
C937        C955   1.452       .  S
C938        C943   1.494       .  S
C938        C939   1.410       .  A
C939        C940   1.412       .  A
C939        C944   1.450       .  S
C940        C941   1.417       .  A
C940        C956   1.451       .  S
C941        C942   1.418       .  A
C942        C945   1.452       .  S
C943        C946   1.408       .  A
C943        C950   1.410       .  A
C944        N961   1.157       .  T
C945        N963   1.157       .  T
C946        C947   1.409       .  A
C946        C951   1.451       .  S
C947        C948   1.418       .  A
C947        C953   1.451       .  S
C948        C949   1.416       .  A
C949        C950   1.412       .  A
C949        C952   1.450       .  S
C950        C954   1.451       .  S
C951        N958   1.157       .  T
C952        N959   1.157       .  T
C953        N957   1.157       .  T
C954        N960   1.157       .  T
C955        N964   1.157       .  T
C956        N962   1.158       .  T
C965        C966   1.409       .  A
C965        C970   1.410       .  A
C965        C983   1.451       .  S
C966        C971   1.496       .  S
C966        C967   1.411       .  A
C967        C968   1.412       .  A
C967        C972   1.451       .  S
C968        C969   1.415       .  A
C968        C984   1.451       .  S
C969        C970   1.415       .  A
C970        C973   1.450       .  S
C971        C974   1.410       .  A
C971        C978   1.411       .  A
C972        N989   1.157       .  T
C973        N991   1.157       .  T
C974        C975   1.410       .  A
C974        C979   1.450       .  S
C975        C976   1.416       .  A
C975        C981   1.452       .  S
C976        C977   1.415       .  A
C977        C978   1.411       .  A
C977        C980   1.451       .  S
C978        C982   1.451       .  S
C979        N986   1.157       .  T
C980        N987   1.157       .  T
C981        N985   1.157       .  T
C982        N988   1.157       .  T
C983        N992   1.157       .  T
C984        N990   1.157       .  T
C993        C994   1.408       .  A
C993        C998   1.411       .  A
C993       C1011   1.451       .  S
C994        C999   1.490       .  S
C994        C995   1.409       .  A
C995        C996   1.407       .  A
C995       C1000   1.453       .  S
C996        C997   1.418       .  A
C996       C1012   1.452       .  S
C997        C998   1.418       .  A
C998       C1001   1.451       .  S
C999       C1002   1.410       .  A
C999       C1006   1.409       .  A
C1000      N1017   1.157       .  T
C1001      N1019   1.157       .  T
C1002      C1003   1.409       .  A
C1002      C1007   1.450       .  S
C1003      C1004   1.414       .  A
C1003      C1009   1.451       .  S
C1004      C1005   1.413       .  A
C1005      C1006   1.407       .  A
C1005      C1008   1.452       .  S
C1006      C1010   1.451       .  S
C1007      N1014   1.157       .  T
C1008      N1015   1.157       .  T
C1009      N1013   1.157       .  T
C1010      N1016   1.157       .  T
C1011      N1020   1.157       .  T
C1012      N1018   1.157       .  T
C1021      C1022   1.410       .  A
C1021      C1026   1.410       .  A
C1021      C1039   1.451       .  S
C1022      C1027   1.496       .  S
C1022      C1023   1.410       .  A
C1023      C1024   1.412       .  A
C1023      C1028   1.450       .  S
C1024      C1025   1.416       .  A
C1024      C1040   1.451       .  S
C1025      C1026   1.415       .  A
C1026      C1029   1.451       .  S
C1027      C1030   1.409       .  A
C1027      C1034   1.409       .  A
C1028      N1045   1.157       .  T
C1029      N1047   1.157       .  T
C1030      C1031   1.412       .  A
C1030      C1035   1.451       .  S
C1031      C1032   1.421       .  A
C1031      C1037   1.451       .  S
C1032      C1033   1.418       .  A
C1033      C1034   1.410       .  A
C1033      C1036   1.451       .  S
C1034      C1038   1.451       .  S
C1035      N1042   1.157       .  T
C1036      N1043   1.157       .  T
C1037      N1041   1.158       .  T
C1038      N1044   1.157       .  T
C1039      N1048   1.157       .  T
C1040      N1046   1.157       .  T
C1049      C1050   1.412   1_565  A
C1049      C1054   1.412       .  A
C1049      C1067   1.451       .  S
C1050      C1055   1.499       .  S
C1050      C1051   1.411   1_545  A
C1051      C1052   1.410       .  A
C1051      C1056   1.451   1_565  S
C1052      C1053   1.416       .  A
C1052      C1068   1.451       .  S
C1053      C1054   1.416       .  A
C1054      C1057   1.451       .  S
C1055      C1058   1.411       .  A
C1055      C1062   1.412       .  A
C1056      N1073   1.157       .  T
C1057      N1075   1.158       .  T
C1058      C1059   1.411       .  A
C1058      C1063   1.451       .  S
C1059      C1060   1.415       .  A
C1059      C1065   1.452       .  S
C1060      C1061   1.416       .  A
C1061      C1062   1.411       .  A
C1061      C1064   1.452       .  S
C1062      C1066   1.451       .  S
C1063      N1070   1.157   1_545  T
C1064      N1071   1.158       .  T
C1065      N1069   1.157       .  T
C1066      N1072   1.157       .  T
C1067      N1076   1.157       .  T
C1068      N1074   1.157       .  T
C1077      C1078   1.409       .  A
C1077      C1082   1.411       .  A
C1077      C1095   1.451       .  S
C1078      C1083   1.494       .  S
C1078      C1079   1.409       .  A
C1079      C1080   1.409       .  A
C1079      C1084   1.451       .  S
C1080      C1081   1.417       .  A
C1080      C1096   1.451       .  S
C1081      C1082   1.417       .  A
C1082      C1085   1.451       .  S
C1083      C1086   1.410       .  A
C1083      C1090   1.409       .  A
C1084      N1101   1.157       .  T
C1085      N1103   1.157       .  T
C1086      C1087   1.410       .  A
C1086      C1091   1.451       .  S
C1087      C1088   1.414       .  A
C1087      C1093   1.451       .  S
C1088      C1089   1.416       .  A
C1089      C1090   1.410       .  A
C1089      C1092   1.451       .  S
C1090      C1094   1.451       .  S
C1091      N1098   1.157       .  T
C1092      N1099   1.157       .  T
C1093      N1097   1.157       .  T
C1094      N1100   1.157       .  T
C1095      N1104   1.157       .  T
C1096      N1102   1.157       .  T
