geometry optimzed in LAMMPS
_audit_creation_date              2020-12-01 
_audit_creation_method            'lammps2cif' 
_symmetry_space_group_name_H-M    'P1' 
_symmetry_Int_Tables_number       1 
_symmetry_cell_setting            triclinic 
loop_ 
_symmetry_equiv_pos_as_xyz 
  x,y,z 
_cell_length_a                    38.87346682 
_cell_length_b                    39.0894286746417 
_cell_length_c                    39.232029616599085 
_cell_angle_alpha                 89.89496731519672 
_cell_angle_beta                  89.95967480709331 
_cell_angle_gamma                 88.89342234172769 
loop_ 
_atom_site_label 
_atom_site_type_symbol 
_atom_site_fract_x 
_atom_site_fract_y 
_atom_site_fract_z 
_atom_site_charge 
C1          C  0.12896183  0.82130962  0.51683826     0.02300
C2          C  0.12032740  0.80637921  0.48405146     0.02300
C3          C  0.12652122  0.82775763  0.45431125     0.02300
C4          C  0.14328959  0.85986300  0.45735823     0.02300
C5          C  0.15404758  0.87204109  0.48933122     0.02300
C6          C  0.14583551  0.85349860  0.51908279     0.02300
C7          C  0.13879004  0.17861580  0.46399767     0.02300
C8          C  0.15353372  0.14439092  0.46100241     0.02300
C9          C  0.15656547  0.12324896  0.49071216     0.02300
C10         C  0.14745941  0.13600838  0.52348333     0.02300
C11         C  0.12930350  0.16758596  0.52644481     0.02300
C12         C  0.12110480  0.18640289  0.49585022     0.02300
C13         C  0.84000719  0.14899590  0.53312861     0.02300
C14         C  0.85390737  0.18131064  0.52788512     0.02300
C15         C  0.86930396  0.18903733  0.49593239     0.02300
C16         C  0.85999952  0.17051900  0.46638748     0.02300
C17         C  0.84281955  0.13912150  0.47032773     0.02300
C18         C  0.83303898  0.12798347  0.50378345     0.02300
C19         C  0.89970459  0.84242701  0.52490500     0.02300
C20         C  0.91181770  0.82725337  0.49368486     0.02300
C21         C  0.90064126  0.84158145  0.46158136     0.02300
C22         C  0.88306212  0.87397749  0.46262176     0.02300
C23         C  0.86880017  0.88695505  0.49339226     0.02300
C24         C  0.87503070  0.86969977  0.52440361     0.02300
C25         C  0.53102879  0.13436398  0.13255030     0.02300
C26         C  0.49848221  0.14521004  0.12062339     0.02300
C27         C  0.46844342  0.13084468  0.13429035     0.02300
C28         C  0.47100425  0.10171999  0.15565944     0.02300
C29         C  0.50361255  0.09167965  0.16917293     0.02300
C30         C  0.53334732  0.11007072  0.15917945     0.02300
C31         C  0.46779933  0.14089397  0.83176608     0.02300
C32         C  0.46543155  0.16985258  0.85467805     0.02300
C33         C  0.49627585  0.17635858  0.87426781     0.02300
C34         C  0.52934497  0.16304358  0.86344784     0.02300
C35         C  0.53192716  0.14050065  0.83525972     0.02300
C36         C  0.50082732  0.12714153  0.82173868     0.02300
C37         C  0.52791880  0.86186798  0.14054239     0.02300
C38         C  0.49543444  0.87022622  0.15539683     0.02300
C39         C  0.46553320  0.85449947  0.14169580     0.02300
C40         C  0.46774885  0.82597835  0.11886675     0.02300
C41         C  0.50010275  0.81933616  0.10295245     0.02300
C42         C  0.52943094  0.83817743  0.11307757     0.02300
C43         C  0.47905997  0.83588338  0.86728617     0.02300
C44         C  0.47588591  0.86671218  0.84748604     0.02300
C45         C  0.50554652  0.88350930  0.83591518     0.02300
C46         C  0.53816427  0.87156736  0.84655218     0.02300
C47         C  0.54278769  0.84004070  0.86449701     0.02300
C48         C  0.51291953  0.82061106  0.87514224     0.02300
C49         C  0.12833540  0.46787405  0.88414158     0.02300
C50         C  0.11860414  0.50174492  0.87566103     0.02300
C51         C  0.13799421  0.52927586  0.88804015     0.02300
C52         C  0.16319909  0.52313238  0.91361367     0.02300
C53         C  0.17231238  0.48906532  0.92317809     0.02300
C54         C  0.15720615  0.46146085  0.90545017     0.02300
C55         C  0.14823189  0.54051531  0.15854713     0.02300
C56         C  0.15793321  0.50881130  0.14231912     0.02300
C57         C  0.14070445  0.47821696  0.15153591     0.02300
C58         C  0.11429164  0.47862348  0.17630603     0.02300
C59         C  0.10643281  0.50941959  0.19395612     0.02300
C60         C  0.12549527  0.54023264  0.18781696     0.02300
C61         C  0.86789322  0.47091734  0.17348282     0.02300
C62         C  0.88722823  0.49804414  0.18985808     0.02300
C63         C  0.88037127  0.53332543  0.17904858     0.02300
C64         C  0.85666851  0.54018779  0.15197752     0.02300
C65         C  0.84020968  0.51338669  0.13538706     0.02300
C66         C  0.84715497  0.48024281  0.14615841     0.02300
C67         C  0.85731524  0.47367698  0.84997728     0.02300
C68         C  0.87111874  0.50456846  0.83662366     0.02300
C69         C  0.85471423  0.53720851  0.84279913     0.02300
C70         C  0.82494193  0.53942248  0.86510117     0.02300
C71         C  0.81982862  0.50988063  0.88674104     0.02300
C72         C  0.83251104  0.47662836  0.87642955     0.02300
O73         O  0.08674256  0.96205504  0.83786229    -0.80200
O74         O  0.19751427  0.02647315  0.91518739    -0.80200
O75         O  0.17430962  0.92832900  0.86756318    -0.80200
O76         O  0.12532360  0.07227426  0.82612336    -0.80100
O77         O  0.15506324  0.96900576  0.90250164    -0.80300
O78         O  0.08791341  0.03472031  0.84355098    -0.80200
O79         O  0.16357032  0.05803758  0.88181137    -0.80200
O80         O  0.12508707  0.92409785  0.81829952    -0.80200
C81         C  0.09496223  0.93165756  0.82899728     1.09500
C82         C  0.18084616  0.05442062  0.90992614     1.09400
C83         C  0.16274759  0.93741491  0.89679490     1.09600
C84         C  0.09536709  0.06567407  0.83794085     1.09400
O85         O  0.11854438  0.03576678  0.77483296    -0.80200
O86         O  0.22237021  0.97203043  0.87309233    -0.80200
O87         O  0.16803913  0.95962690  0.77085187    -0.80200
O88         O  0.19841996  0.08108617  0.82642379    -0.80200
O89         O  0.21842136  0.03258712  0.84888361    -0.80200
O90         O  0.11203179  0.96713999  0.77003186    -0.80200
O91         O  0.17446409  0.03485514  0.78116335    -0.80100
O92         O  0.21769185  0.96475705  0.81830406    -0.80200
Co93       Co  0.10421763  0.99986165  0.80942703     1.51500
Co94       Co  0.18089813  0.00392699  0.87485497     1.51700
Co95       Co  0.17061171  0.94753410  0.81950123     1.51600
Co96       Co  0.16904048  0.04249655  0.83061168     1.51500
O97         O  0.15162167  0.99426738  0.83341954    -1.42100
C98         C  0.14858553  0.03924374  0.76217569     1.09500
C99         C  0.23611491  0.96457704  0.84459128     1.09500
C100        C  0.13983039  0.95855441  0.75507351     1.09500
C101        C  0.22383678  0.06154560  0.83415283     1.09500
O102        O  0.03725429  0.08925799  0.84916439    -0.80200
O103        O  0.96389813  0.14664947  0.91417827    -0.80200
O104        O  0.07776257  0.16397095  0.89133822    -0.80200
O105        O  0.94743331  0.11227601  0.84798467    -0.80100
O106        O  0.03473911  0.14419776  0.92237718    -0.80300
O107        O  0.97628185  0.07705324  0.81302233    -0.80200
O108        O  0.92973500  0.17189883  0.87839721    -0.80200
O109        O  0.07815664  0.12399024  0.83308633    -0.80200
C110        C  0.06878577  0.09420963  0.84132095     1.09500
C111        C  0.93407715  0.15743180  0.90685840     1.09400
C112        C  0.06658800  0.14964956  0.91888599     1.09600
C113        C  0.95048831  0.08313076  0.83269479     1.09400
O114        O  0.96565285  0.14134824  0.78951234    -0.80200
O115        O  0.03767800  0.21495776  0.90257151    -0.80200
O116        O  0.04499162  0.17721067  0.79332848    -0.80200
O117        O  0.96889629  0.21193300  0.83206656    -0.80200
O118        O  0.96998840  0.21878121  0.88779842    -0.80200
O119        O  0.03070118  0.12371965  0.78328577    -0.80200
O120        O  0.92017029  0.16668444  0.81238736    -0.80100
O121        O  0.04547631  0.21948660  0.84805130    -0.80200
Co122      Co  0.00003561  0.11776503  0.82549647     1.51500
Co123      Co  0.00170782  0.17874813  0.90386723     1.51700
Co124      Co  0.05833184  0.17087714  0.84220837     1.51600
Co125      Co  0.96115275  0.16289380  0.83859879     1.51500
O126        O  0.00944090  0.15851842  0.85579056    -1.42100
C127        C  0.93509003  0.15512921  0.78624654     1.09500
C128        C  0.04248463  0.23355600  0.87670375     1.09500
C129        C  0.04146214  0.15269787  0.77250533     1.09500
C130        C  0.96478492  0.23118112  0.85771253     1.09500
O131        O  0.03410319  0.91828383  0.16619354    -0.80200
O132        O  0.96419553  0.83620960  0.07764023    -0.80200
O133        O  0.07443397  0.82268457  0.10607098    -0.80200
O134        O  0.93726627  0.88775896  0.13512808    -0.80100
O135        O  0.03376499  0.83291537  0.06929485    -0.80300
O136        O  0.96865426  0.92693977  0.15608405    -0.80200
O137        O  0.92800990  0.82589379  0.11886138    -0.80200
O138        O  0.06802116  0.88690160  0.13311252    -0.80200
C139        C  0.06055466  0.91505729  0.14774982     1.09500
C140        C  0.93374835  0.83455282  0.08829086     1.09400
C141        C  0.06539599  0.83160026  0.07670926     1.09600
C142        C  0.94131098  0.91905714  0.14233097     1.09400
O143        O  0.96111866  0.87588225  0.20519623    -0.80200
O144        O  0.03600241  0.77291843  0.11667607    -0.80200
O145        O  0.05607445  0.85349180  0.19712004    -0.80200
O146        O  0.96961849  0.79762402  0.17572304    -0.80200
O147        O  0.96724717  0.77611868  0.12445438    -0.80200
O148        O  0.00608862  0.87276728  0.21318776    -0.80200
O149        O  0.91898349  0.84461010  0.18550997    -0.80100
O150        O  0.04681478  0.79457310  0.16670828    -0.80200
Co151      Co  0.99563063  0.88620540  0.16698689     1.51500
Co152      Co  0.00031811  0.80755606  0.09866918     1.51700
Co153      Co  0.05576352  0.84016150  0.14931968     1.51600
Co154      Co  0.95772802  0.84351495  0.15614747     1.51500
O155        O  0.00446714  0.84585231  0.13465151    -1.42100
C156        C  0.93321923  0.85928380  0.21025697     1.09500
C157        C  0.04531589  0.76893753  0.14760724     1.09500
C158        C  0.03489572  0.86055211  0.22008288     1.09500
C159        C  0.96448088  0.77208709  0.15672229     1.09500
O160        O  0.16433271  0.87534385  0.06264636    -0.80200
O161        O  0.12685059  0.83475507  0.91535821    -0.80200
O162        O  0.15156185  0.91556764  0.95399937    -0.80200
O163        O  0.08746389  0.84762281  0.02237435    -0.80100
O164        O  0.17733425  0.88136446  0.91806790    -0.80300
O165        O  0.12243681  0.82339806  0.05891223    -0.80200
O166        O  0.08909709  0.85252212  0.95304927    -0.80200
O167        O  0.14432498  0.91211653  0.02483077    -0.80200
C168        C  0.15029888  0.90427870  0.05558911     1.09500
C169        C  0.09660789  0.84564394  0.92260888     1.09400
C170        C  0.16273195  0.91015179  0.92424072     1.09600
C171        C  0.09295892  0.83569369  0.05158450     1.09400
O172        O  0.17451639  0.78291487  0.02153248    -0.80200
O173        O  0.21885478  0.83027696  0.95782856    -0.80200
O174        O  0.21605664  0.88809553  0.03025089    -0.80200
O175        O  0.11844638  0.78255134  0.95002014    -0.80200
O176        O  0.17304780  0.78738350  0.95378262    -0.80200
O177        O  0.21650591  0.83346116  0.02573565    -0.80200
O178        O  0.11920266  0.77782304  0.01815202    -0.80100
O179        O  0.22307872  0.88521606  0.96206552    -0.80200
Co180      Co  0.16895034  0.82981662  0.03779919     1.51500
Co181      Co  0.17278226  0.83433933  0.94030298     1.51700
Co182      Co  0.18013381  0.89611309  0.99216447     1.51600
Co183      Co  0.10743286  0.81893250  0.98616566     1.51500
O184        O  0.15518206  0.84683633  0.98903146    -1.42100
C185        C  0.14874866  0.76472967  0.02534429     1.09500
C186        C  0.23738913  0.85562343  0.95832021     1.09500
C187        C  0.23123297  0.85958010  0.03548281     1.09500
C188        C  0.14825077  0.76920693  0.94740254     1.09500
O189        O  0.05815511  0.11362859  0.16050168    -0.80200
O190        O  0.92432563  0.17432495  0.11881097    -0.80200
O191        O  0.97174186  0.09401074  0.19150070    -0.80200
O192        O  0.03584334  0.16249010  0.09226245    -0.80100
O193        O  0.93636001  0.11486854  0.15266205    -0.80300
O194        O  0.07232139  0.17602290  0.13215821    -0.80200
O195        O  0.96642745  0.16141625  0.08456475    -0.80200
O196        O  0.03695480  0.08836798  0.20568521    -0.80200
C197        C  0.05706181  0.08716174  0.18031607     1.09500
C198        C  0.93458086  0.16288942  0.09050716     1.09400
C199        C  0.94618345  0.09052062  0.17158384     1.09600
C200        C  0.06636180  0.16786825  0.10125906     1.09400
O201        O  0.03178479  0.21292934  0.18436376    -0.80200
O202        O  0.94376680  0.15246893  0.21355553    -0.80200
O203        O  0.03194937  0.15285160  0.22705026    -0.80200
O204        O  0.96095666  0.22726258  0.12487357    -0.80200
O205        O  0.94665341  0.21076294  0.17682484    -0.80200
O206        O  0.08095098  0.16600744  0.20266174    -0.80200
O207        O  0.03042858  0.22733090  0.13030405    -0.80100
O208        O  0.99798340  0.15006733  0.22879562    -0.80200
Co209      Co  0.04191383  0.16403469  0.17267657     1.51500
Co210      Co  0.94225766  0.16310838  0.16482992     1.51700
Co211      Co  0.01212081  0.12543358  0.18453810     1.51600
Co212      Co  0.99822353  0.19212036  0.11037520     1.51500
O213        O  0.99366612  0.16234506  0.15328894    -1.42100
C214        C  0.03463513  0.23545904  0.16145478     1.09500
C215        C  0.96628712  0.15662691  0.23588164     1.09500
C216        C  0.06333548  0.16441485  0.22981647     1.09500
C217        C  0.94876582  0.23393489  0.15462535     1.09500
O218        O  0.11494426  0.92949640  0.16335153    -0.80200
O219        O  0.16555079  0.06924143  0.11897252    -0.80200
O220        O  0.07205130  0.02815806  0.18899990    -0.80200
O221        O  0.14179824  0.96188383  0.07607017    -0.80100
O222        O  0.10636300  0.05829556  0.15542182    -0.80300
O223        O  0.15998371  0.92173407  0.11242710    -0.80200
O224        O  0.14410632  0.03544666  0.08020917    -0.80200
O225        O  0.08233137  0.97243880  0.14379969    -0.80200
C226        C  0.08724153  0.94061646  0.15012009     1.09500
C227        C  0.15361758  0.06508759  0.08887913     1.09400
C228        C  0.07901817  0.05633351  0.17439174     1.09600
C229        C  0.14842072  0.93052520  0.08304773     1.09400
O230        O  0.21159673  0.95252919  0.15524826    -0.80200
O231        O  0.16362456  0.07751332  0.19110049    -0.80200
O232        O  0.11147807  0.97194921  0.21066332    -0.80200
O233        O  0.21350122  0.02628280  0.11008783    -0.80200
O234        O  0.20668489  0.02702507  0.16577708    -0.80200
O235        O  0.16621345  0.96031617  0.20671308    -0.80200
O236        O  0.21076284  0.95848022  0.09973043    -0.80100
O237        O  0.13720035  0.03146436  0.20893621    -0.80200
Co238      Co  0.16291227  0.94425561  0.15895701     1.51500
Co239      Co  0.15752505  0.03935094  0.16069818     1.51700
Co240      Co  0.11099624  0.00449899  0.17077404     1.51600
Co241      Co  0.17470439  0.99581633  0.09430228     1.51500
O242        O  0.15183567  0.99205155  0.14177527    -1.42100
C243        C  0.22574651  0.94870158  0.12679178     1.09500
C244        C  0.15224162  0.05971270  0.21566838     1.09500
C245        C  0.13975982  0.96396964  0.22507477     1.09500
C246        C  0.22638681  0.02743930  0.14011652     1.09500
O247        O  0.14735235  0.09191813  0.03221390    -0.80200
O248        O  0.08383312  0.17441799  0.97024404    -0.80200
O249        O  0.12456194  0.17534807  0.08341122    -0.80200
O250        O  0.17257354  0.11416464  0.92541716    -0.80100
O251        O  0.08577678  0.16526107  0.04340018    -0.80300
O252        O  0.18422244  0.07625049  0.96790634    -0.80200
O253        O  0.11372662  0.12926545  0.95574785    -0.80200
O254        O  0.16948933  0.12149539  0.07449870    -0.80200
C255        C  0.15550010  0.09437989  0.06376026     1.09500
C256        C  0.08842598  0.14947970  0.95050898     1.09400
C257        C  0.09384019  0.16832537  0.07474736     1.09600
C258        C  0.17944815  0.08281083  0.93567488     1.09400
O259        O  0.22174891  0.12990682  0.97142298    -0.80200
O260        O  0.12049089  0.22864864  0.04565232    -0.80200
O261        O  0.21643396  0.16811918  0.04074307    -0.80200
O262        O  0.14450667  0.19179222  0.93376002    -0.80200
O263        O  0.13165064  0.22586350  0.97754084    -0.80200
O264        O  0.21905791  0.11299363  0.03140901    -0.80200
O265        O  0.20249940  0.17667676  0.95495825    -0.80100
O266        O  0.17528476  0.22034557  0.05183223    -0.80200
Co267      Co  0.17794510  0.11653083  0.99879952     1.51500
Co268      Co  0.10899941  0.19456969  0.00926895     1.51700
Co269      Co  0.17075166  0.17083788  0.05921111     1.51600
Co270      Co  0.15970591  0.15041258  0.96059144     1.51500
O271        O  0.15404940  0.16452516  0.01037253    -1.42100
C272        C  0.22765043  0.15717685  0.95577913     1.09500
C273        C  0.14965673  0.24021437  0.05306408     1.09500
C274        C  0.23329219  0.14069478  0.04098996     1.09500
C275        C  0.14383484  0.22123865  0.94790321     1.09500
O276        O  0.89124400  0.06519978  0.16899213    -0.80200
O277        O  0.82898996  0.92745859  0.11989836    -0.80200
O278        O  0.91432368  0.97493394  0.13645623    -0.80200
O279        O  0.85254613  0.03590282  0.08634456    -0.80100
O280        O  0.88549475  0.93202826  0.15901727    -0.80300
O281        O  0.83722637  0.07482254  0.12323784    -0.80200
O282        O  0.84913708  0.96588538  0.08529887    -0.80200
O283        O  0.93711907  0.02983547  0.17769000    -0.80200
C284        C  0.92444809  0.05998981  0.17245393     1.09500
C285        C  0.84088261  0.93528597  0.09071800     1.09400
C286        C  0.91166937  0.94312925  0.14334518     1.09600
C287        C  0.84706041  0.06696661  0.09314473     1.09400
O288        O  0.79176040  0.04002024  0.17323109    -0.80200
O289        O  0.84600216  0.96191260  0.21363323    -0.80200
O290        O  0.88650783  0.02994547  0.21929074    -0.80200
O291        O  0.78046419  0.97046523  0.11827687    -0.80200
O292        O  0.78851639  0.96043295  0.17273443    -0.80200
O293        O  0.83302057  0.03496269  0.21654623    -0.80200
O294        O  0.78298865  0.03964958  0.11900676    -0.80100
O295        O  0.90155867  0.97036534  0.20813684    -0.80200
Co296      Co  0.83916965  0.04960153  0.16928715     1.51500
Co297      Co  0.83741238  0.94941101  0.16618781     1.51700
Co298      Co  0.89501107  0.00646595  0.17173314     1.51600
Co299      Co  0.81946960  0.00279889  0.10572943     1.51500
O300        O  0.84632035  0.99955671  0.15278060    -1.42100
C301        C  0.77198137  0.04470977  0.14922741     1.09500
C302        C  0.87608652  0.96040460  0.22583050     1.09500
C303        C  0.85862967  0.03511316  0.23469862     1.09500
C304        C  0.76879916  0.96079781  0.14717848     1.09500
O305        O  0.83083336  0.12201238  0.07161448    -0.80200
O306        O  0.87790699  0.17333212  0.92596412    -0.80200
O307        O  0.85693886  0.08910857  0.95996647    -0.80200
O308        O  0.91500142  0.14735993  0.03398627    -0.80100
O309        O  0.83144084  0.12456307  0.92433476    -0.80300
O310        O  0.87819665  0.16903181  0.07104866    -0.80200
O311        O  0.91158965  0.14666303  0.96217147    -0.80200
O312        O  0.85625744  0.08752860  0.03476122    -0.80200
C313        C  0.84627781  0.09371285  0.06526095     1.09500
C314        C  0.90609692  0.15763012  0.93241723     1.09400
C315        C  0.84775368  0.09635992  0.92952851     1.09600
C316        C  0.90809133  0.15745740  0.06400508     1.09400
O317        O  0.83332554  0.21740352  0.03653359    -0.80200
O318        O  0.78519885  0.16947220  0.96620183    -0.80200
O319        O  0.78563762  0.11283880  0.03103351    -0.80200
O320        O  0.88559237  0.21945425  0.96562355    -0.80200
O321        O  0.82991119  0.21737816  0.96666067    -0.80200
O322        O  0.78355142  0.16846837  0.03445730    -0.80200
O323        O  0.88942303  0.21637117  0.03254182    -0.80100
O324        O  0.78433534  0.11443197  0.96426197    -0.80200
Co325      Co  0.83195726  0.16855828  0.04853506     1.51500
Co326      Co  0.83181793  0.17032824  0.95010234     1.51700
Co327      Co  0.82465266  0.10478837  0.99742259     1.51600
Co328      Co  0.89663475  0.17877731  0.99818607     1.51500
O329        O  0.84761779  0.15436532  0.99890283    -1.42100
C330        C  0.86184743  0.23143636  0.04155988     1.09500
C331        C  0.76828339  0.14317443  0.96226490     1.09500
C332        C  0.76832695  0.14034097  0.03570069     1.09500
C333        C  0.85630164  0.23462259  0.96291726     1.09500
O334        O  0.07696449  0.87582336  0.81440145    -0.80200
O335        O  0.94437019  0.84900164  0.88013072    -0.80200
O336        O  0.96712616  0.91033296  0.83512938    -0.80200
O337        O  0.03771896  0.84584524  0.90402859    -0.80100
O338        O  0.92964590  0.87201191  0.82153657    -0.80300
O339        O  0.07826448  0.83234994  0.86702962    -0.80200
O340        O  0.97534986  0.82052903  0.91612256    -0.80200
O341        O  0.03714621  0.91399014  0.82967471    -0.80200
C342        C  0.06840443  0.90547234  0.82563988     1.09500
C343        C  0.94802036  0.83611313  0.90951037     1.09400
C344        C  0.93613947  0.90208283  0.83184383     1.09600
C345        C  0.06934246  0.84292519  0.89639636     1.09400
O346        O  0.04123281  0.78122626  0.82648410    -0.80200
O347        O  0.96990797  0.81613429  0.78755372    -0.80200
O348        O  0.03538873  0.87818818  0.76443733    -0.80200
O349        O  0.97168278  0.78081587  0.85789453    -0.80200
O350        O  0.92309034  0.80289594  0.83486847    -0.80200
O351        O  0.03978068  0.82383710  0.77453307    -0.80200
O352        O  0.03766676  0.77975612  0.88159123    -0.80100
O353        O  0.96638345  0.86958014  0.77067266    -0.80200
Co354      Co  0.05527368  0.82958255  0.82120215     1.51500
Co355      Co  0.96092363  0.83171245  0.83407660     1.51700
Co356      Co  0.00162060  0.89107624  0.80274300     1.51600
Co357      Co  0.00521632  0.81862811  0.87657745     1.51500
O358        O  0.00795951  0.85004423  0.83522094    -1.42100
C359        C  0.04562894  0.76531760  0.85413720     1.09500
C360        C  0.96275854  0.83767449  0.76473861     1.09500
C361        C  0.04163101  0.84797267  0.75378421     1.09500
C362        C  0.94117005  0.77726386  0.84435211     1.09500
O363        O  0.92531655  0.02888720  0.84600705    -0.80200
O364        O  0.85860043  0.96828722  0.90884503    -0.80200
O365        O  0.83989644  0.07756905  0.87065420    -0.80200
O366        O  0.87904515  0.92386772  0.82409493    -0.80100
O367        O  0.86113878  0.04015370  0.90620752    -0.80300
O368        O  0.91586677  0.95776403  0.84795896    -0.80200
O369        O  0.83446447  0.93120703  0.87465177    -0.80200
O370        O  0.89218851  0.06962929  0.82444041    -0.80200
C371        C  0.92131933  0.05938335  0.83579422     1.09500
C372        C  0.85016320  0.93773326  0.90240015     1.09400
C373        C  0.85141884  0.07059868  0.90050303     1.09600
C374        C  0.90862950  0.92847910  0.83669244     1.09400
O375        O  0.89105768  0.96265513  0.77792194    -0.80200
O376        O  0.78963915  0.04170358  0.87635134    -0.80200
O377        O  0.84499355  0.03436022  0.77799361    -0.80200
O378        O  0.78823778  0.97190627  0.82847486    -0.80200
O379        O  0.78823312  0.97339737  0.88339455    -0.80200
O380        O  0.90023587  0.02949108  0.77651301    -0.80200
O381        O  0.83525619  0.96587460  0.77918009    -0.80100
O382        O  0.79526161  0.04035398  0.82144431    -0.80200
Co383      Co  0.90393812  0.99515058  0.81593025     1.51500
Co384      Co  0.82819830  0.00555123  0.88967634     1.51700
Co385      Co  0.84361308  0.05120246  0.82468578     1.51600
Co386      Co  0.83514978  0.95285608  0.82741493     1.51500
O387        O  0.85444949  0.00112198  0.84106935    -1.42100
C388        C  0.86243884  0.95928019  0.76291945     1.09500
C389        C  0.77694832  0.04741806  0.84657475     1.09500
C390        C  0.87234127  0.03810407  0.76191897     1.09500
C391        C  0.77172685  0.97028981  0.85583291     1.09500
O392        O  0.85079042  0.91658826  0.03231784    -0.80200
O393        O  0.92195422  0.84320087  0.96443595    -0.80200
O394        O  0.87562027  0.83027006  0.07195261    -0.80200
O395        O  0.84619458  0.87941678  0.91930302    -0.80100
O396        O  0.91363982  0.84741659  0.03381905    -0.80300
O397        O  0.85888800  0.91494177  0.95964310    -0.80200
O398        O  0.89041125  0.82571752  0.92310352    -0.80200
O399        O  0.82784170  0.88019158  0.06865445    -0.80200
C400        C  0.84101857  0.90924875  0.06250783     1.09500
C401        C  0.91900531  0.83569232  0.93336574     1.09400
C402        C  0.90586892  0.83965103  0.06410252     1.09600
C403        C  0.85350348  0.90948214  0.92821036     1.09400
O404        O  0.79007911  0.87995079  0.95631775    -0.80200
O405        O  0.88476420  0.78170194  0.03479158    -0.80200
O406        O  0.78450038  0.83493341  0.02656445    -0.80200
O407        O  0.83207535  0.79433195  0.94832029    -0.80200
O408        O  0.88111945  0.77600774  0.96732213    -0.80200
O409        O  0.78342408  0.89023025  0.02387932    -0.80200
O410        O  0.80555583  0.82850080  0.93904212    -0.80100
O411        O  0.82975398  0.78473156  0.03197961    -0.80200
Co412      Co  0.82470560  0.89632257  0.99335542     1.51500
Co413      Co  0.89676836  0.81603813  0.99957045     1.51700
Co414      Co  0.83056269  0.83325681  0.04605441     1.51600
Co415      Co  0.84992261  0.83901572  0.95062408     1.51500
O416        O  0.85193340  0.84841926  0.00018808    -1.42100
C417        C  0.78326285  0.85095046  0.94253878     1.09500
C418        C  0.85644280  0.76727829  0.03764398     0.93900
C419        C  0.76803510  0.86253773  0.02846059     1.09500
C420        C  0.85156680  0.76963791  0.95416734     1.09500
C421        C  0.88824675  0.62057423  0.80252445    -0.22500
C422        C  0.90746474  0.63401316  0.82975468     0.09500
C423        C  0.91538865  0.61176760  0.85732094     0.09900
C424        C  0.89827613  0.58068578  0.86029942    -0.17400
C425        C  0.87554283  0.56902030  0.83522894    -0.27800
C426        C  0.87403759  0.58759196  0.80410322     0.18200
C427        C  0.91497860  0.67177519  0.83144700     0.12200
C428        C  0.94219570  0.61951974  0.88388716    -0.12200
H429        H  0.90363224  0.56511854  0.88231065     0.12500
C430        C  0.85487879  0.57499151  0.77338519    -0.23000
H431        H  0.88236632  0.63648940  0.78060057     0.08100
C432        C  0.92638059  0.69152315  0.80319675     0.04400
C433        C  0.93030676  0.72716576  0.80691095    -0.20200
C434        C  0.92778861  0.74267196  0.83907799    -0.12500
C435        C  0.91748404  0.72334516  0.86706888     0.13200
C436        C  0.90929655  0.68887675  0.86272174    -0.23000
C437        C  0.93859808  0.67581972  0.77018881    -0.06000
H438        H  0.93944843  0.74209370  0.78551902     0.14700
C439        C  0.91635691  0.73939083  0.90169049    -0.16200
H440        H  0.89936339  0.67494317  0.88435593     0.09000
H441        H  0.83409319  0.59355513  0.76634383     0.06900
H442        H  0.84310810  0.54979161  0.77790203     0.08100
H443        H  0.87283309  0.57275478  0.75148687     0.07100
H444        H  0.92973576  0.62255675  0.90921566     0.02000
H445        H  0.95689256  0.64278173  0.87789989     0.02500
H446        H  0.96118117  0.59795831  0.88524447     0.06000
H447        H  0.96484391  0.68493076  0.76429808     0.05000
H448        H  0.92102905  0.68368366  0.74917762    -0.00800
H449        H  0.94068782  0.64756237  0.77129502     0.00700
H450        H  0.91011403  0.72048546  0.92120502     0.04300
H451        H  0.89695420  0.76050211  0.90165453     0.06300
H452        H  0.94186708  0.74959430  0.90854544     0.07100
C453        C  0.84014805  0.67321351  0.93465669    -0.22500
C454        C  0.81130026  0.67446105  0.91316476     0.09500
C455        C  0.79341364  0.70582385  0.90905886     0.09900
C456        C  0.80805371  0.73576337  0.92203625    -0.17400
C457        C  0.83854095  0.73529823  0.94227466    -0.27800
C458        C  0.85298100  0.70267019  0.95056546     0.18200
C459        C  0.80158388  0.64237725  0.89526105     0.12200
C460        C  0.75796555  0.70760694  0.89324025    -0.12200
H461        H  0.79489981  0.75977051  0.91642880     0.12500
C462        C  0.88121076  0.69685154  0.97625221    -0.23000
H463        H  0.85279095  0.64866888  0.93932990     0.08100
C464        C  0.81042950  0.63616081  0.86086791     0.04400
C465        C  0.81024099  0.60221422  0.84872894    -0.20200
C466        C  0.80537515  0.57430398  0.87078530    -0.12500
C467        C  0.78390853  0.58290982  0.89905880     0.13200
C468        C  0.78572434  0.61598981  0.91329747    -0.23000
C469        C  0.82105603  0.66458742  0.83733250    -0.06000
H470        H  0.81425466  0.59746396  0.82219953     0.14700
C471        C  0.75329540  0.56207227  0.90858841    -0.16200
H472        H  0.77340693  0.62154542  0.93750842     0.09000
H473        H  0.89043216  0.72048432  0.98802054     0.06900
H474        H  0.90347771  0.68340232  0.96421726     0.08100
H475        H  0.87160731  0.68000470  0.99678266     0.07100
H476        H  0.74027275  0.69151052  0.90829301     0.02000
H477        H  0.75809642  0.69827928  0.86672206     0.02500
H478        H  0.74719742  0.73414649  0.89305475     0.06000
H479        H  0.82829585  0.65479887  0.81178022     0.05000
H480        H  0.84310833  0.67821301  0.84824158    -0.00800
H481        H  0.79970655  0.68313751  0.83326985     0.00700
H482        H  0.75352054  0.55626959  0.93626816     0.04300
H483        H  0.75205970  0.53824436  0.89334336     0.06300
H484        H  0.72944762  0.57717285  0.90307477     0.07100
C485        C  0.87976824  0.37963798  0.82435942    -0.22500
C486        C  0.90921949  0.37248642  0.84457378     0.09500
C487        C  0.92410360  0.40052225  0.86118286     0.09900
C488        C  0.90515929  0.43113038  0.86481505    -0.17400
C489        C  0.87607371  0.43912027  0.84482840    -0.27800
C490        C  0.86424493  0.41291955  0.82296330     0.18200
C491        C  0.92367546  0.33621725  0.84842679     0.12200
C492        C  0.96021309  0.39952846  0.87481917    -0.12200
H493        H  0.91323763  0.44840105  0.88427284     0.12500
C494        C  0.83537388  0.41907874  0.79811117    -0.23000
H495        H  0.86862465  0.35922751  0.80963231     0.08100
C496        C  0.93365415  0.32159672  0.88043231     0.04400
C497        C  0.94864186  0.28856940  0.88191371    -0.20200
C498        C  0.95199717  0.26769025  0.85300287    -0.12500
C499        C  0.94158424  0.28190413  0.82100060     0.13200
C500        C  0.92809175  0.31575813  0.81925852    -0.23000
C501        C  0.92792209  0.33908821  0.91417215    -0.06000
H502        H  0.95630275  0.27844409  0.90657200     0.14700
C503        C  0.94416244  0.26187160  0.78826763    -0.16200
H504        H  0.92097578  0.32641954  0.79468813     0.09000
H505        H  0.81508550  0.39996782  0.80216185     0.06900
H506        H  0.84537585  0.41597704  0.77176585     0.08100
H507        H  0.82374743  0.44510872  0.80037296     0.07100
H508        H  0.97518395  0.42007549  0.86253677     0.02000
H509        H  0.97410492  0.37514569  0.86932598     0.02500
H510        H  0.95944720  0.40394515  0.90270532     0.06000
H511        H  0.91568009  0.32139967  0.93246096     0.05000
H512        H  0.91068271  0.36166561  0.91187476    -0.00800
H513        H  0.95297178  0.34644814  0.92523630     0.00700
H514        H  0.93481097  0.27695976  0.76599765     0.04300
H515        H  0.92811798  0.23881782  0.79004970     0.06300
H516        H  0.97138371  0.25436935  0.78322628     0.07100
C517        C  0.80549717  0.38673986  0.90245563    -0.22500
C518        C  0.83126016  0.37803280  0.92628503     0.09500
C519        C  0.85306351  0.40430030  0.93800153     0.09900
C520        C  0.85018932  0.43731926  0.92383695    -0.17400
C521        C  0.82681218  0.44495711  0.89755022    -0.27800
C522        C  0.80276283  0.41987828  0.88827542     0.18200
C523        C  0.83637245  0.34108520  0.93619682     0.12200
C524        C  0.88100298  0.39832713  0.96397832    -0.12200
H525        H  0.86822967  0.45666820  0.93152231     0.12500
C526        C  0.77374996  0.42748984  0.86386166    -0.23000
H527        H  0.78792994  0.36724586  0.89412358     0.08100
C528        C  0.82839983  0.32853241  0.96906613     0.04400
C529        C  0.83561035  0.29391554  0.97709434    -0.20200
C530        C  0.85163295  0.27152007  0.95365067    -0.12500
C531        C  0.85662474  0.28324683  0.91997943     0.13200
C532        C  0.84897631  0.31776527  0.91164494    -0.23000
C533        C  0.81102282  0.35114363  0.99525848    -0.06000
H534        H  0.82799923  0.28411302  0.00168464     0.14700
C535        C  0.86841782  0.25886080  0.89251727    -0.16200
H536        H  0.85342104  0.32678597  0.88590638     0.09000
H537        H  0.74887968  0.42490092  0.87746051     0.06900
H538        H  0.77433559  0.40893221  0.84257948     0.08100
H539        H  0.77467642  0.45374943  0.85319429     0.07100
H540        H  0.88342425  0.37121464  0.97175710     0.02000
H541        H  0.87550401  0.41413267  0.98690565     0.02500
H542        H  0.90615211  0.40603922  0.95327615     0.06000
H543        H  0.80590258  0.33704765  0.01929424     0.05000
H544        H  0.78609526  0.36099924  0.98508103    -0.00800
H545        H  0.82741043  0.37306140  0.00165062     0.00700
H546        H  0.87125971  0.27196750  0.86755816     0.04300
H547        H  0.84931439  0.23833492  0.88949965     0.06300
H548        H  0.89356313  0.24700306  0.89961013     0.07100
C549        C  0.89794997  0.62242531  0.21493323    -0.22500
C550        C  0.92552962  0.63245100  0.19422276     0.09500
C551        C  0.94215502  0.60703013  0.17399844     0.09900
C552        C  0.93004278  0.57309680  0.17383249    -0.17400
C553        C  0.90005596  0.56406709  0.19151970    -0.27800
C554        C  0.88459698  0.58905007  0.21329202     0.18200
C555        C  0.93273731  0.67012718  0.18934103     0.12200
C556        C  0.97088426  0.61635153  0.15022068    -0.12200
H557        H  0.94181752  0.55443190  0.15683577     0.12500
C558        C  0.85306085  0.58175688  0.23419641    -0.23000
H559        H  0.88501233  0.64151915  0.23060704     0.08100
C560        C  0.91247363  0.69042002  0.16704492     0.04400
C561        C  0.92357461  0.72309927  0.15681879    -0.20200
C562        C  0.95278493  0.73818796  0.17117316    -0.12500
C563        C  0.96903985  0.72029974  0.19873094     0.13200
C564        C  0.95995518  0.68604227  0.20619035    -0.23000
C565        C  0.87847146  0.67768892  0.15506485    -0.06000
H566        H  0.90848363  0.73752728  0.13842459     0.14700
C567        C  0.99508189  0.73631818  0.22171365    -0.16200
H568        H  0.97389876  0.67187379  0.22567404     0.09000
H569        H  0.83215216  0.60028185  0.22762075     0.06900
H570        H  0.85921394  0.58469418  0.26165363     0.08100
H571        H  0.84348945  0.55552561  0.23021111     0.07100
H572        H  0.99237856  0.62713471  0.16488937     0.02000
H573        H  0.96148359  0.63571042  0.13150017     0.02500
H574        H  0.98088535  0.59379654  0.13587714     0.06000
H575        H  0.86514764  0.69634263  0.13804322     0.05000
H576        H  0.86136944  0.67335803  0.17724961    -0.00800
H577        H  0.88278766  0.65311725  0.14172640     0.00700
H578        H  0.98361100  0.73991776  0.24741022     0.04300
H579        H  0.00399349  0.76137491  0.21259666     0.06300
H580        H  0.01763330  0.71884377  0.22446052     0.07100
C581        C  0.88145098  0.68017265  0.07361795    -0.22500
C582        C  0.85070063  0.66240679  0.07055530     0.09500
C583        C  0.82211471  0.67848623  0.05456170     0.09900
C584        C  0.82442940  0.71293482  0.04449379    -0.17400
C585        C  0.85512300  0.73105325  0.04869477    -0.27800
C586        C  0.88443721  0.71379108  0.06251200     0.18200
C587        C  0.84904237  0.62883438  0.08805531     0.12200
C588        C  0.78997015  0.65906884  0.04652725    -0.12200
H589        H  0.80239250  0.72552243  0.03267064     0.12500
C590        C  0.91925203  0.73001561  0.06599633    -0.23000
H591        H  0.90325490  0.66803019  0.08624596     0.08100
C592        C  0.87535209  0.60379217  0.08353425     0.04400
C593        C  0.87981562  0.57830049  0.10818198    -0.20200
C594        C  0.85556412  0.57374590  0.13417390    -0.12500
C595        C  0.82725743  0.59672783  0.13682823     0.13200
C596        C  0.82535190  0.62498157  0.11484817    -0.23000
C597        C  0.89735687  0.60247794  0.05179295    -0.06000
H598        H  0.90088137  0.55994020  0.10556932     0.14700
C599        C  0.79874341  0.59222236  0.16229689    -0.16200
H600        H  0.80591079  0.64463673  0.11948590     0.09000
H601        H  0.93843997  0.71269494  0.07848879     0.06900
H602        H  0.91711351  0.75351806  0.08168815     0.08100
H603        H  0.92958847  0.73628948  0.04040644     0.07100
H604        H  0.77676427  0.65095036  0.07010379     0.02000
H605        H  0.79679692  0.63611942  0.03110940     0.02500
H606        H  0.77133689  0.67495712  0.03163241     0.06000
H607        H  0.91418561  0.57918572  0.05132287     0.05000
H608        H  0.91430562  0.62479724  0.04983468    -0.00800
H609        H  0.88047811  0.60170985  0.02899015     0.00700
H610        H  0.79696547  0.61503080  0.17905867     0.04300
H611        H  0.80258423  0.56920797  0.17848992     0.06300
H612        H  0.77395053  0.58975396  0.14859690     0.07100
C613        C  0.86371187  0.37137467  0.16944222    -0.22500
C614        C  0.88784757  0.36362036  0.19415955     0.09500
C615        C  0.89534285  0.38851446  0.21788370     0.09900
C616        C  0.88179434  0.42120608  0.21200356    -0.17400
C617        C  0.87121885  0.43132310  0.17874209    -0.27800
C618        C  0.86297195  0.40415999  0.15090612     0.18200
C619        C  0.90744602  0.33118084  0.18934243     0.12200
C620        C  0.91669021  0.38131865  0.24911811    -0.12200
H621        H  0.88302888  0.43956665  0.23244261     0.12500
C622        C  0.84602541  0.41521860  0.07844870    -0.23000
H623        H  0.85095783  0.34894035  0.16133281     0.08100
C624        C  0.89626844  0.30033074  0.20350496     0.04400
C625        C  0.91059102  0.26941214  0.19166949    -0.20200
C626        C  0.93448816  0.26821102  0.16445364    -0.12500
C627        C  0.94452208  0.29933167  0.14930341     0.13200
C628        C  0.93177329  0.33035675  0.16280014    -0.23000
C629        C  0.86821563  0.29996413  0.23001697    -0.06000
H630        H  0.90197795  0.24583290  0.20313949     0.14700
C631        C  0.96763033  0.30036137  0.11850643    -0.16200
H632        H  0.93912576  0.35428076  0.15112594     0.09000
H633        H  0.86581538  0.42420431  0.05952021     0.06900
H634        H  0.83611954  0.39423021  0.06161321     0.08100
H635        H  0.82541132  0.43431617  0.07033163     0.07100
H636        H  0.92545107  0.35418874  0.25053906     0.02000
H637        H  0.90129241  0.38721480  0.27228465     0.02500
H638        H  0.93977532  0.39756422  0.24887873     0.06000
H639        H  0.86233538  0.27352256  0.23829269     0.05000
H640        H  0.84429040  0.31173600  0.21942530    -0.00800
H641        H  0.87621711  0.31461338  0.25277144     0.00700
H642        H  0.95510713  0.28732001  0.09682255     0.04300
H643        H  0.99265782  0.28763131  0.12409307     0.06300
H644        H  0.97281782  0.32702599  0.11043394     0.07100
C645        C  0.85097165  0.30234175  0.10682438    -0.22500
C646        C  0.86761146  0.32962090  0.09065466     0.09500
C647        C  0.88533752  0.32269547  0.05950269     0.09900
C648        C  0.88351017  0.29004667  0.04489827    -0.17400
C649        C  0.86399735  0.26429869  0.05964871    -0.27800
C650        C  0.84898855  0.26992359  0.09191622     0.18200
C651        C  0.86272040  0.36502544  0.10483099     0.12200
C652        C  0.90558549  0.34886577  0.04017896    -0.12200
H653        H  0.89655652  0.28478735  0.02097926     0.12500
C654        C  0.83171906  0.24225266  0.11215613    -0.23000
H655        H  0.83908911  0.30567677  0.13128782     0.08100
C656        C  0.82007775  0.38003491  0.11735686     0.04400
C657        C  0.81241911  0.42396143  0.12649906    -0.20200
C658        C  0.84665436  0.45343625  0.12240761    -0.12500
C659        C  0.88924349  0.43841392  0.11061066     0.13200
C660        C  0.89669304  0.39443961  0.10291634    -0.23000
C661        C  0.78980833  0.35708909  0.11653739    -0.06000
H662        H  0.78765056  0.43256280  0.13608993     0.14700
C663        C  0.91755282  0.46246938  0.10193961    -0.16200
H664        H  0.92241640  0.38613973  0.09668562     0.09000
H665        H  0.80432956  0.24955824  0.11651732     0.06900
H666        H  0.84472892  0.23936106  0.13722952     0.08100
H667        H  0.83273707  0.21691657  0.09964808     0.07100
H668        H  0.93002733  0.35378463  0.05351179     0.02000
H669        H  0.89017190  0.37263085  0.03639340     0.02500
H670        H  0.91316737  0.33949265  0.01449684     0.06000
H671        H  0.76579198  0.37235383  0.12049705     0.05000
H672        H  0.79162385  0.33779872  0.13716920    -0.00800
H673        H  0.78846062  0.34434521  0.09133536     0.00700
H674        H  0.94294142  0.44962252  0.10585386     0.04300
H675        H  0.91587849  0.48599335  0.11767450     0.06300
H676        H  0.91615828  0.46917318  0.07459553     0.07100
C677        C  0.81760238  0.54288212  0.97827540    -0.22500
C678        C  0.79840990  0.51789477  0.99461678     0.09500
C679        C  0.78131729  0.49335465  0.97490246     0.09900
C680        C  0.78565957  0.49359729  0.93923929    -0.17400
C681        C  0.81047815  0.51453796  0.92370058    -0.27800
C682        C  0.82787005  0.53831996  0.94460021     0.18200
C683        C  0.80663214  0.51284958  0.03110785     0.12200
C684        C  0.76035152  0.46596597  0.99143692    -0.12200
H685        H  0.77129768  0.47597565  0.92379489     0.12500
C686        C  0.86024052  0.55567932  0.93376942    -0.23000
H687        H  0.83047177  0.56174315  0.99375697     0.08100
C688        C  0.84155682  0.50878572  0.04048131     0.04400
C689        C  0.85090037  0.51405535  0.07401180    -0.20200
C690        C  0.82648945  0.51765688  0.09994200    -0.12500
C691        C  0.79113112  0.51779634  0.09139830     0.13200
C692        C  0.78156035  0.51714189  0.05669553    -0.23000
C693        C  0.86984331  0.49867374  0.01574829    -0.06000
H694        H  0.87778081  0.51309620  0.08035983     0.14700
C695        C  0.76332365  0.51835637  0.11804214    -0.16200
H696        H  0.75470512  0.51996225  0.04969733     0.09000
H697        H  0.87327550  0.56835865  0.95540368     0.06900
H698        H  0.85471783  0.57592794  0.91486069     0.08100
H699        H  0.87846155  0.53599217  0.92379746     0.07100
H700        H  0.73863425  0.47786483  0.00578047     0.02000
H701        H  0.77675458  0.45067013  0.00919270     0.02500
H702        H  0.74957432  0.44826386  0.97225846     0.06000
H703        H  0.88400178  0.47583907  0.02554399     0.05000
H704        H  0.88805662  0.52002814  0.01285594    -0.00800
H705        H  0.86011993  0.49129494  0.99033714     0.00700
H706        H  0.74646387  0.54130841  0.11437315     0.04300
H707        H  0.77381688  0.51893231  0.14430382     0.06300
H708        H  0.74759809  0.49508847  0.11549216     0.07100
C709        C  0.12848587  0.63464467  0.20295885    -0.22500
C710        C  0.09310239  0.64100978  0.20716220     0.09500
C711        C  0.07329301  0.61533936  0.22203718     0.09900
C712        C  0.08736108  0.58214875  0.22413322    -0.17400
C713        C  0.11888376  0.57368818  0.20794862    -0.27800
C714        C  0.14190717  0.60125993  0.20663080     0.18200
C715        C  0.07747771  0.67358763  0.19497714     0.12200
C716        C  0.03801553  0.62304439  0.23618587    -0.12200
H717        H  0.07389841  0.56429713  0.23960615     0.12500
C718        C  0.17958216  0.59638547  0.21368197    -0.23000
H719        H  0.14548660  0.65525354  0.19635354     0.08100
C720        C  0.08632150  0.70517468  0.20917504     0.04400
C721        C  0.07567982  0.73542766  0.19275366    -0.20200
C722        C  0.05587651  0.73512319  0.16248959    -0.12500
C723        C  0.04602866  0.70313590  0.14901115     0.13200
C724        C  0.05647243  0.67283762  0.16584700    -0.23000
C725        C  0.10594930  0.70700248  0.24224718    -0.06000
H726        H  0.08304779  0.75957413  0.20382254     0.14700
C727        C  0.02542874  0.70039507  0.11667911    -0.16200
H728        H  0.05023624  0.64826994  0.15494189     0.09000
H729        H  0.18513505  0.60642624  0.23950416     0.06900
H730        H  0.19485116  0.61150016  0.19551113     0.08100
H731        H  0.18756165  0.56898334  0.21308179     0.07100
H732        H  0.02086457  0.63249222  0.21563906     0.02000
H733        H  0.03972555  0.64296299  0.25621601     0.02500
H734        H  0.02628196  0.59998582  0.24756949     0.06000
H735        H  0.10905745  0.73384016  0.25079215     0.05000
H736        H  0.13199728  0.69534972  0.23939939    -0.00800
H737        H  0.09179947  0.69313412  0.26243740     0.00700
H738        H  0.01983663  0.67337507  0.11036777     0.04300
H739        H  0.04011757  0.71121263  0.09505441     0.06300
H740        H  0.00047665  0.71428597  0.11943418     0.07100
C741        C  0.18024128  0.67484092  0.05412329    -0.22500
C742        C  0.15964098  0.67009463  0.08299832     0.09500
C743        C  0.14108267  0.69880095  0.09531826     0.09900
C744        C  0.13465865  0.72713858  0.07395890    -0.17400
C745        C  0.15296906  0.73113688  0.04345775    -0.27800
C746        C  0.17933624  0.70625522  0.03609983     0.18200
C747        C  0.15789893  0.63596746  0.10079010     0.12200
C748        C  0.13270591  0.70132893  0.13241185    -0.12200
H749        H  0.11820346  0.74797165  0.08291831     0.12500
C750        C  0.20895761  0.71295307  0.01255158    -0.23000
H751        H  0.19795388  0.65455270  0.04636617     0.08100
C752        C  0.12605364  0.61954528  0.10516452     0.04400
C753        C  0.12428805  0.58996483  0.12541626    -0.20200
C754        C  0.15369970  0.57407233  0.13971949    -0.12500
C755        C  0.18627621  0.58874568  0.13248975     0.13200
C756        C  0.18776222  0.61974421  0.11380583    -0.23000
C757        C  0.09401270  0.63181804  0.08672217    -0.06000
H758        H  0.09963498  0.57825688  0.12889043     0.14700
C759        C  0.21991836  0.57234987  0.14354126    -0.16200
H760        H  0.21246630  0.63139635  0.10949854     0.09000
H761        H  0.21451368  0.69005438  0.99685083     0.06900
H762        H  0.23226081  0.71773336  0.02803826     0.08100
H763        H  0.20453997  0.73516739  0.99563123     0.07100
H764        H  0.11657142  0.67990769  0.14001796     0.02000
H765        H  0.11980008  0.72604813  0.13848245     0.02500
H766        H  0.15688466  0.69972219  0.14741929     0.06000
H767        H  0.07180954  0.61509655  0.09186622     0.05000
H768        H  0.09881714  0.63163976  0.05884198    -0.00800
H769        H  0.08636541  0.65801956  0.09457654     0.00700
H770        H  0.23500905  0.56459902  0.12070077     0.04300
H771        H  0.21622067  0.54951308  0.15980606     0.06300
H772        H  0.23537368  0.59086286  0.15812386     0.07100
C773        C  0.05494267  0.40170370  0.16300175    -0.22500
C774        C  0.06827590  0.37824005  0.18691619     0.09500
C775        C  0.09283872  0.38983590  0.21068643     0.09900
C776        C  0.10494262  0.42362000  0.20850506    -0.17400
C777        C  0.09401561  0.44618834  0.18252344    -0.27800
C778        C  0.06751956  0.43523405  0.16034173     0.18200
C779        C  0.05981921  0.34104782  0.18316675     0.12200
C780        C  0.10772840  0.36682201  0.23793957    -0.12200
H781        H  0.12487616  0.43165858  0.22588080     0.12500
C782        C  0.05266437  0.45765128  0.13271455    -0.23000
H783        H  0.03585613  0.39318442  0.14491056     0.08100
C784        C  0.03030679  0.32626684  0.19780307     0.04400
C785        C  0.02325251  0.29138908  0.19163914    -0.20200
C786        C  0.04466889  0.27107503  0.17055264    -0.12500
C787        C  0.07505049  0.28548384  0.15752234     0.13200
C788        C  0.08206201  0.32013991  0.16378416    -0.23000
C789        C  0.00629334  0.34731504  0.21976210    -0.06000
H790        H  0.00037715  0.28023860  0.20244230     0.14700
C791        C  0.10077507  0.26394100  0.13799002    -0.16200
H792        H  0.10488373  0.33123193  0.15306429     0.09000
H793        H  0.02486522  0.46225271  0.13742078     0.06900
H794        H  0.05569525  0.44469863  0.10773844     0.08100
H795        H  0.06516490  0.48267306  0.13130887     0.07100
H796        H  0.09654893  0.34094562  0.23782547     0.02000
H797        H  0.10265734  0.37834563  0.26334155     0.02500
H798        H  0.13595528  0.36403155  0.23421698     0.06000
H799        H  0.98465905  0.33190676  0.22947496     0.05000
H800        H  0.99536827  0.36903079  0.20474872    -0.00800
H801        H  0.02054455  0.35745646  0.24195780     0.00700
H802        H  0.12430060  0.27843291  0.13204938     0.04300
H803        H  0.08926376  0.25510443  0.11376714     0.06300
H804        H  0.10874611  0.24135624  0.15346691     0.07100
C805        C  0.14362322  0.40898287  0.08308701    -0.22500
C806        C  0.15575928  0.38058549  0.10195595     0.09500
C807        C  0.16566938  0.38535785  0.13637278     0.09900
C808        C  0.16170649  0.41779575  0.15109087    -0.17400
C809        C  0.14740754  0.44549167  0.13291056    -0.27800
C810        C  0.13770328  0.44089971  0.09859178     0.18200
C811        C  0.15469445  0.34579542  0.08639137     0.12200
C812        C  0.17990384  0.35657119  0.15821877    -0.12200
H813        H  0.16941837  0.42162449  0.17732527     0.12500
C814        C  0.11943777  0.46860193  0.07840184    -0.23000
H815        H  0.13693206  0.40577625  0.05650167     0.08100
C816        C  0.12340447  0.33162599  0.07527259     0.04400
C817        C  0.12325069  0.29782105  0.06332337    -0.20200
C818        C  0.15298542  0.27669429  0.06395706    -0.12500
C819        C  0.18435634  0.29096296  0.07539398     0.13200
C820        C  0.18488297  0.32560558  0.08498671    -0.23000
C821        C  0.08964853  0.35134326  0.07711460    -0.06000
H822        H  0.09916468  0.28748004  0.05456453     0.14700
C823        C  0.21726962  0.27008850  0.07894679    -0.16200
H824        H  0.20898070  0.33679897  0.09248569     0.09000
H825        H  0.09686316  0.45806540  0.06499349     0.06900
H826        H  0.13719185  0.47934185  0.05961260     0.08100
H827        H  0.11025004  0.49025940  0.09429191     0.07100
H828        H  0.20580344  0.34860719  0.14908708     0.02000
H829        H  0.16273631  0.33430841  0.15767293     0.02500
H830        H  0.18272532  0.36448077  0.18523510     0.06000
H831        H  0.06744532  0.33483645  0.07140699     0.05000
H832        H  0.08923084  0.37245269  0.05823624    -0.00800
H833        H  0.08572386  0.36204706  0.10300803     0.00700
H834        H  0.23860022  0.28553003  0.08918362     0.04300
H835        H  0.22579611  0.25997218  0.05390103     0.06300
H836        H  0.21328548  0.24858819  0.09696215     0.07100
C837        C  0.97039904  0.46503929  0.23473029    -0.22500
C838        C  0.97642227  0.49329891  0.25516971     0.09500
C839        C  0.94858891  0.51550722  0.26274948     0.09900
C840        C  0.91753808  0.51203892  0.24474703    -0.17400
C841        C  0.91604961  0.49119394  0.21540470    -0.27800
C842        C  0.94385299  0.46693997  0.21085527     0.18200
C843        C  0.01083189  0.50712215  0.24871183     0.12200
C844        C  0.95296993  0.54449699  0.28738654    -0.12200
H845        H  0.89596447  0.52853284  0.25115260     0.12500
C846        C  0.95011725  0.44537834  0.17998598    -0.23000
H847        H  0.99162768  0.44710849  0.23012445     0.08100
C848        C  0.04076139  0.49219285  0.26314479     0.04400
C849        C  0.07222426  0.49462500  0.24565356    -0.20200
C850        C  0.07361930  0.50981254  0.21314754    -0.12500
C851        C  0.04344474  0.52510567  0.19908209     0.13200
C852        C  0.01323808  0.52549431  0.21810185    -0.23000
C853        C  0.03898684  0.47266257  0.29613891    -0.06000
H854        H  0.09542138  0.48336434  0.25653816     0.14700
C855        C  0.04205682  0.54175597  0.16444442    -0.16200
H856        H  0.99006466  0.53636011  0.20667200     0.09000
H857        H  0.95225632  0.41790021  0.18694592     0.06900
H858        H  0.97436260  0.45298307  0.16746367     0.08100
H859        H  0.92973249  0.44876890  0.16182686     0.07100
H860        H  0.97343767  0.56169018  0.27823898     0.02000
H861        H  0.96032672  0.53410478  0.31276197     0.02500
H862        H  0.92884875  0.55993613  0.29020766     0.06000
H863        H  0.06474922  0.46283415  0.30412282     0.05000
H864        H  0.02178728  0.45050692  0.29329351    -0.00800
H865        H  0.02874718  0.48973251  0.31649553     0.00700
H866        H  0.02131429  0.53022519  0.14906204     0.04300
H867        H  0.06626049  0.53839474  0.15009987     0.06300
H868        H  0.03643089  0.56956121  0.16726354     0.07100
C869        C  0.05409166  0.66968255  0.84532103    -0.22500
C870        C  0.08926715  0.66490154  0.85099341     0.09500
C871        C  0.11028305  0.69350982  0.85580566     0.09900
C872        C  0.09522205  0.72617825  0.85782224    -0.17400
C873        C  0.05979576  0.73060636  0.85388215    -0.27800
C874        C  0.03911845  0.70228946  0.84720257     0.18200
C875        C  0.10181919  0.63017761  0.85947463     0.12200
C876        C  0.14838627  0.68940034  0.85926355    -0.12200
H877        H  0.11105065  0.74828252  0.86228013     0.12500
C878        C  0.00125838  0.70635340  0.84295791    -0.23000
H879        H  0.03808017  0.64758042  0.84158662     0.08100
C880        C  0.09401542  0.61623773  0.89154566     0.04400
C881        C  0.10981680  0.58548831  0.90126329    -0.20200
C882        C  0.12809860  0.56512685  0.87779799    -0.12500
C883        C  0.13440203  0.57833651  0.84478449     0.13200
C884        C  0.12211162  0.61136480  0.83639073    -0.23000
C885        C  0.06753817  0.63285386  0.91474370    -0.06000
H886        H  0.10572897  0.57625100  0.92678317     0.14700
C887        C  0.15433299  0.55859925  0.81819209    -0.16200
H888        H  0.12768406  0.62214598  0.81156347     0.09000
H889        H  0.99007320  0.71677419  0.86686703     0.06900
H890        H  0.98896462  0.68159338  0.83745106     0.08100
H891        H  0.99634348  0.72402492  0.82132548     0.07100
H892        H  0.15922555  0.67752952  0.83583211     0.02000
H893        H  0.15362036  0.67259614  0.88131129     0.02500
H894        H  0.16107568  0.71426873  0.86323273     0.06000
H895        H  0.06406681  0.61825272  0.93873272     0.05000
H896        H  0.04204690  0.63345676  0.90208223    -0.00800
H897        H  0.07493580  0.65941278  0.92085773     0.00700
H898        H  0.13771903  0.55457008  0.79559756     0.04300
H899        H  0.16360112  0.53324469  0.82742459     0.06300
H900        H  0.17711984  0.57340138  0.81034552     0.07100
C901        C  0.19781549  0.68632673  0.93293040    -0.22500
C902        C  0.17524292  0.66174946  0.94550245     0.09500
C903        C  0.14233961  0.67386530  0.95793674     0.09900
C904        C  0.13282325  0.70858938  0.95444950    -0.17400
C905        C  0.15550112  0.73239769  0.94132670    -0.27800
C906        C  0.18831663  0.72086733  0.92963968     0.18200
C907        C  0.18545280  0.62414073  0.94295416     0.12200
C908        C  0.11771737  0.65244605  0.97824594    -0.12200
H909        H  0.10850685  0.71778633  0.96484560     0.12500
C910        C  0.21423519  0.74467598  0.91407013    -0.23000
H911        H  0.22404987  0.67915328  0.92732487     0.08100
C912        C  0.20187397  0.60889374  0.91375523     0.04400
C913        C  0.19948637  0.57345313  0.90872189    -0.20200
C914        C  0.17888645  0.55350199  0.92972807    -0.12500
C915        C  0.16638731  0.56771657  0.96047916     0.13200
C916        C  0.17399171  0.60169088  0.96823886    -0.23000
C917        C  0.22146124  0.62824917  0.88686852    -0.06000
H918        H  0.20987608  0.56194700  0.88567822     0.14700
C919        C  0.14226007  0.54903596  0.98377290    -0.16200
H920        H  0.16731682  0.61144616  0.99306367     0.09000
H921        H  0.23591656  0.73033243  0.90191934     0.06900
H922        H  0.22564649  0.76115258  0.93388989     0.08100
H923        H  0.20172560  0.76065253  0.89400936     0.07100
H924        H  0.12759767  0.64898738  0.00453506     0.02000
H925        H  0.11365813  0.62745790  0.96606590     0.02500
H926        H  0.09202860  0.66509206  0.98097051     0.06000
H927        H  0.22907741  0.61164979  0.86507281     0.05000
H928        H  0.24580345  0.63772564  0.89771750    -0.00800
H929        H  0.20589076  0.64942843  0.87597361     0.00700
H930        H  0.15658960  0.52936313  0.99825795     0.04300
H931        H  0.12135977  0.53699895  0.96920973     0.06300
H932        H  0.13009004  0.56655378  0.00272615     0.07100
C933        C  0.05519547  0.32515871  0.90792208    -0.22500
C934        C  0.05169209  0.34358584  0.87729131     0.09500
C935        C  0.04028751  0.32620789  0.84798174     0.09900
C936        C  0.03709964  0.29058006  0.84898705    -0.17400
C937        C  0.04362242  0.27160416  0.87892192    -0.27800
C938        C  0.05107797  0.28953191  0.90929131     0.18200
C939        C  0.06601654  0.37874008  0.87526581     0.12200
C940        C  0.03125073  0.34447603  0.81523953    -0.12200
H941        H  0.02943767  0.27753365  0.82591938     0.12500
C942        C  0.05611493  0.27150192  0.94293492    -0.23000
H943        H  0.06246780  0.33858065  0.93076770     0.08100
C944        C  0.05754395  0.40500662  0.89884743     0.04400
C945        C  0.07643863  0.43518693  0.89869071    -0.20200
C946        C  0.10454219  0.43936928  0.87670942    -0.12500
C947        C  0.11196950  0.41415085  0.85202518     0.13200
C948        C  0.09244866  0.38440292  0.85142826    -0.23000
C949        C  0.02986207  0.40184688  0.92545029    -0.06000
H950        H  0.07088478  0.45459743  0.91772328     0.14700
C951        C  0.14087237  0.41743149  0.82672237    -0.16200
H952        H  0.09908728  0.36471315  0.83306474     0.09000
H953        H  0.03195091  0.25887942  0.95055071     0.06900
H954        H  0.06302415  0.28950513  0.96359730     0.08100
H955        H  0.07719788  0.25215035  0.94072791     0.07100
H956        H  0.04906590  0.33587262  0.79470941     0.02000
H957        H  0.03244697  0.37269598  0.81755866     0.02500
H958        H  0.00450898  0.33830752  0.80783428     0.06000
H959        H  0.01216694  0.42437507  0.92401847     0.05000
H960        H  0.04178275  0.40128040  0.95116180    -0.00800
H961        H  0.01433668  0.37862636  0.92229060     0.00700
H962        H  0.15974600  0.39607413  0.83027716     0.04300
H963        H  0.15462350  0.44188218  0.82927604     0.06300
H964        H  0.13036146  0.41619547  0.80046059     0.07100
C965        C  0.19585228  0.30125826  0.94008183    -0.22500
C966        C  0.18128611  0.31604789  0.91113336     0.09500
C967        C  0.15995664  0.29622745  0.88991211     0.09900
C968        C  0.15015279  0.26348186  0.90068681    -0.17400
C969        C  0.16079791  0.25087734  0.93244051    -0.27800
C970        C  0.18511531  0.26954668  0.95164388     0.18200
C971        C  0.17817437  0.35366385  0.91178739     0.12200
C972        C  0.14538423  0.30990009  0.85708349    -0.12200
H973        H  0.13200329  0.24916242  0.88565816     0.12500
C974        C  0.20088396  0.25695567  0.98444745    -0.23000
H975        H  0.21249075  0.31636743  0.95609966     0.08100
C976        C  0.15221230  0.36890619  0.93200662     0.04400
C977        C  0.14682362  0.40404133  0.93029819    -0.20200
C978        C  0.16855176  0.42523338  0.91152793    -0.12500
C979        C  0.19704956  0.41023492  0.89419630     0.13200
C980        C  0.20119822  0.37433854  0.89400800    -0.23000
C981        C  0.13015916  0.34814193  0.95571133    -0.06000
H982        H  0.12408330  0.41445249  0.94225089     0.14700
C983        C  0.22246165  0.43111395  0.87449733    -0.16200
H984        H  0.22206813  0.36248813  0.87967941     0.09000
H985        H  0.19295518  0.27464673  0.00509471     0.06900
H986        H  0.22938879  0.25699153  0.98244928     0.08100
H987        H  0.19364261  0.23060620  0.99104824     0.07100
H988        H  0.15454055  0.33593250  0.85125303     0.02000
H989        H  0.11690790  0.31056422  0.85862536     0.02500
H990        H  0.15334953  0.29281774  0.83580721     0.06000
H991        H  0.10931630  0.36386808  0.96762758     0.05000
H992        H  0.14628195  0.33728395  0.97656576    -0.00800
H993        H  0.11842467  0.32678663  0.94169929     0.00700
H994        H  0.24867893  0.42637592  0.88490348     0.04300
H995        H  0.21690931  0.45898323  0.87588733     0.06300
H996        H  0.22214869  0.42343862  0.84727002     0.07100
C997        C  0.19447085  0.46496572  0.01467829    -0.22500
C998        C  0.22395805  0.48414798  0.02004406     0.09500
C999        C  0.24130101  0.49731988  0.99137743     0.09900
C1000       C  0.22582111  0.49509871  0.95886074    -0.17400
C1001       C  0.19227336  0.48246260  0.95522367    -0.27800
C1002       C  0.17624073  0.46778429  0.98413088     0.18200
C1003       C  0.22558209  0.50013954  0.05444511     0.12200
C1004       C  0.27525267  0.51465568  0.99544968    -0.12200
H1005       H  0.23845612  0.50608192  0.93690350     0.12500
C1006       C  0.13808355  0.46133070  0.98628112    -0.23000
H1007       H  0.18204997  0.45361436  0.03646102     0.08100
C1008       C  0.20396808  0.52899262  0.05901821     0.04400
C1009       C  0.17936232  0.52852944  0.08487660    -0.20200
C1010       C  0.18399711  0.50739909  0.11359746    -0.12500
C1011       C  0.21332615  0.48487366  0.11370989     0.13200
C1012       C  0.23155849  0.47915476  0.08300864    -0.23000
C1013       C  0.20779659  0.56057534  0.03769480    -0.06000
H1014       H  0.15746801  0.54576742  0.08284311     0.14700
C1015       C  0.22607665  0.46675319  0.14524506    -0.16200
H1016       H  0.24939653  0.45761067  0.08096911     0.09000
H1017       H  0.12602241  0.47859049  0.00525750     0.06900
H1018       H  0.13367462  0.43465181  0.99469315     0.08100
H1019       H  0.12395279  0.46714696  0.96249937     0.07100
H1020       H  0.29430538  0.49631418  0.00658372     0.02000
H1021       H  0.27262575  0.53704611  0.01258419     0.02500
H1022       H  0.28532660  0.52368959  0.97058142     0.06000
H1023       H  0.18674089  0.57952182  0.04265592     0.05000
H1024       H  0.20855838  0.55427986  0.01039079    -0.00800
H1025       H  0.23244470  0.57276846  0.04428946     0.00700
H1026       H  0.22647157  0.43868126  0.14111687     0.04300
H1027       H  0.21033350  0.47302036  0.16804063     0.06300
H1028       H  0.25278098  0.47472972  0.15061187     0.07100
C1029       C  0.02806719  0.53397699  0.85802885    -0.22500
C1030       C  0.01845459  0.51302585  0.83079610     0.09500
C1031       C  0.04439166  0.49394767  0.81348862     0.09900
C1032       C  0.07827749  0.49427538  0.82629387    -0.17400
C1033       C  0.08505667  0.50863861  0.85843570    -0.27800
C1034       C  0.05819927  0.52625187  0.87561937     0.18200
C1035       C  0.98112347  0.50520938  0.82911453     0.12200
C1036       C  0.03644327  0.47183455  0.78326704    -0.12200
H1037       H  0.09863346  0.48037588  0.81311230     0.12500
C1038       C  0.05729942  0.53092214  0.91385935    -0.23000
H1039       H  0.00852876  0.54947649  0.87079419     0.08100
C1040       C  0.96322892  0.49977160  0.86007369     0.04400
C1041       C  0.92809492  0.50453942  0.86081372    -0.20200
C1042       C  0.90880956  0.50444518  0.83099287    -0.12500
C1043       C  0.92579985  0.50461173  0.79915478     0.13200
C1044       C  0.96199598  0.50737142  0.79860417    -0.23000
C1045       C  0.98007247  0.48864065  0.89300971    -0.06000
H1046       H  0.91509875  0.50481264  0.88530287     0.14700
C1047       C  0.90676866  0.50191366  0.76602081    -0.16200
H1048       H  0.97488773  0.51135484  0.77454287     0.09000
H1049       H  0.03732173  0.51467109  0.92518161     0.06900
H1050       H  0.05039700  0.55776165  0.92036411     0.08100
H1051       H  0.08152433  0.52291271  0.92651498     0.07100
H1052       H  0.02758795  0.48804271  0.76165574     0.02000
H1053       H  0.01629712  0.45325365  0.79006619     0.02500
H1054       H  0.05953558  0.45708750  0.77459664     0.06000
H1055       H  0.96577752  0.46734275  0.90464715     0.05000
H1056       H  0.97948960  0.51019432  0.91138093    -0.00800
H1057       H  0.00662217  0.47868926  0.88892259     0.00700
H1058       H  0.91162756  0.52481133  0.75012757     0.04300
H1059       H  0.91615873  0.47885735  0.75210147     0.06300
H1060       H  0.87866575  0.49945613  0.76984016     0.07100
C1061       C  0.68011708  0.94288585  0.87735917    -0.22500
C1062       C  0.66399164  0.94697346  0.84542803     0.09500
C1063       C  0.68160240  0.96394298  0.81927287     0.09900
C1064       C  0.71668074  0.97060701  0.82346017    -0.17400
C1065       C  0.73385157  0.96446727  0.85459973    -0.27800
C1066       C  0.71456179  0.95207216  0.88254516     0.18200
C1067       C  0.62949911  0.93174580  0.84025540     0.12200
C1068       C  0.66317304  0.97636881  0.78766954    -0.12200
H1069       H  0.73075417  0.98078886  0.80207104     0.12500
C1070       C  0.73001051  0.94736009  0.91750538    -0.23000
H1071       H  0.66606112  0.93104745  0.89799123     0.08100
C1072       C  0.62357350  0.90471691  0.81670427     0.04400
C1073       C  0.59268828  0.88713039  0.81833698    -0.20200
C1074       C  0.56781300  0.89493139  0.84290681    -0.12500
C1075       C  0.57257133  0.92294476  0.86511362     0.13200
C1076       C  0.60314893  0.94126398  0.86308024    -0.23000
C1077       C  0.64930118  0.89154684  0.79075298    -0.06000
H1078       H  0.58871647  0.86566044  0.80140768     0.14700
C1079       C  0.54672757  0.93305410  0.89229511    -0.16200
H1080       H  0.60730007  0.96201006  0.88083918     0.09000
H1081       H  0.71128950  0.93661700  0.93585604     0.06900
H1082       H  0.73818738  0.97246400  0.92752450     0.08100
H1083       H  0.75252962  0.92958614  0.91639087     0.07100
H1084       H  0.64254438  0.99488939  0.79513845     0.02000
H1085       H  0.65122864  0.95545518  0.77338744     0.02500
H1086       H  0.68105878  0.98900855  0.76988445     0.06000
H1087       H  0.63886693  0.89568950  0.76470375     0.05000
H1088       H  0.65343455  0.86357512  0.79426524    -0.00800
H1089       H  0.67466976  0.90369882  0.79241029     0.00700
H1090       H  0.55961135  0.93678261  0.91712961     0.04300
H1091       H  0.52616534  0.91416374  0.89570032     0.06300
H1092       H  0.53411496  0.95757638  0.88587175     0.07100
C1093       C  0.63136501  0.84589471  0.90661578    -0.22500
C1094       C  0.65234238  0.82604464  0.88522184     0.09500
C1095       C  0.63694523  0.80757703  0.85858851     0.09900
C1096       C  0.60108326  0.81164470  0.85252898    -0.17400
C1097       C  0.57985113  0.83178603  0.87422758    -0.27800
C1098       C  0.59558657  0.84741946  0.90274436     0.18200
C1099       C  0.68991887  0.82511350  0.89299448     0.12200
C1100       C  0.65822151  0.78339497  0.83707421    -0.12200
H1101       H  0.58954987  0.79909446  0.83089331     0.12500
C1102       C  0.57559215  0.86484082  0.93055285    -0.23000
H1103       H  0.64304916  0.86042582  0.92686106     0.08100
C1104       C  0.71219046  0.84973071  0.87921831     0.04400
C1105       C  0.74204035  0.85839783  0.89662790    -0.20200
C1106       C  0.75059349  0.84232975  0.92712786    -0.12500
C1107       C  0.73231415  0.81275331  0.93725845     0.13200
C1108       C  0.70142946  0.80532170  0.92065840    -0.23000
C1109       C  0.70409589  0.86766011  0.84673614    -0.06000
H1110       H  0.75900796  0.87746723  0.88616761     0.14700
C1111       C  0.74355004  0.78927993  0.96606534    -0.16200
H1112       H  0.68530151  0.78527108  0.93056533     0.09000
H1113       H  0.58605919  0.89051916  0.93519759     0.06900
H1114       H  0.57908922  0.85000165  0.95437827     0.08100
H1115       H  0.54777724  0.86683500  0.92491826     0.07100
H1116       H  0.67055487  0.76360991  0.85361712     0.02000
H1117       H  0.67852550  0.79738955  0.82340429     0.02500
H1118       H  0.64222130  0.77027906  0.81785427     0.06000
H1119       H  0.72289502  0.88780111  0.84055466     0.05000
H1120       H  0.67846597  0.87953761  0.84970911    -0.00800
H1121       H  0.70424872  0.84909570  0.82548086     0.00700
H1122       H  0.72376604  0.78950575  0.98645056     0.04300
H1123       H  0.76827712  0.79622992  0.97770293     0.06300
H1124       H  0.74631160  0.76267328  0.95650505     0.07100
C1125       C  0.39734470  0.91532453  0.81031521    -0.22500
C1126       C  0.38109512  0.92854295  0.83987658     0.09500
C1127       C  0.39638365  0.92035609  0.87198245     0.09900
C1128       C  0.42694490  0.90073308  0.87301176    -0.17400
C1129       C  0.44149374  0.88544146  0.84383328    -0.27800
C1130       C  0.42623481  0.89305674  0.81191683     0.18200
C1131       C  0.34544761  0.94425090  0.83616416     0.12200
C1132       C  0.38087104  0.92895712  0.90629077    -0.12200
H1133       H  0.44004336  0.89781020  0.89718284     0.12500
C1134       C  0.43984004  0.87829755  0.77902274    -0.23000
H1135       H  0.38639717  0.92116366  0.78552745     0.08100
C1136       C  0.33246621  0.97255538  0.85538022     0.04400
C1137       C  0.29675323  0.97814449  0.85818492    -0.20200
C1138       C  0.27346924  0.95749248  0.84100002    -0.12500
C1139       C  0.28625833  0.93174240  0.81883387     0.13200
C1140       C  0.32188444  0.92612964  0.81605081    -0.23000
C1141       C  0.35497112  0.99766678  0.87322329    -0.06000
H1142       H  0.28701176  0.99918310  0.87363927     0.14700
C1143       C  0.26254932  0.90806928  0.80012694    -0.16200
H1144       H  0.33096646  0.90463191  0.80092088     0.09000
H1145       H  0.44810266  0.89933675  0.76201955     0.06900
H1146       H  0.41919279  0.86399052  0.76611652     0.08100
H1147       H  0.46193828  0.86038429  0.78291337     0.07100
H1148       H  0.37887543  0.90531682  0.92154592     0.02000
H1149       H  0.35443042  0.93930168  0.90547425     0.02500
H1150       H  0.39758082  0.94705662  0.92002581     0.06000
H1151       H  0.34964716  0.02339725  0.86265310     0.05000
H1152       H  0.38251520  0.99155423  0.87012878    -0.00800
H1153       H  0.34890414  0.99842368  0.90087283     0.00700
H1154       H  0.24729747  0.92252384  0.78082414     0.04300
H1155       H  0.24499792  0.89566168  0.81854512     0.06300
H1156       H  0.27698974  0.88747793  0.78647240     0.07100
C1157       C  0.32881282  0.81603813  0.95127575    -0.22500
C1158       C  0.34160465  0.83429937  0.92350250     0.09500
C1159       C  0.31894171  0.85787189  0.90723372     0.09900
C1160       C  0.28709441  0.86682258  0.92188041    -0.17400
C1161       C  0.27444136  0.84943080  0.95000002    -0.27800
C1162       C  0.29497094  0.82162270  0.96337871     0.18200
C1163       C  0.37804876  0.82795640  0.91179279     0.12200
C1164       C  0.32599635  0.87335931  0.87353217    -0.12200
H1165       H  0.27066539  0.88575805  0.90931155     0.12500
C1166       C  0.28259605  0.79586981  0.98898368    -0.23000
H1167       H  0.34476871  0.79590821  0.96239441     0.08100
C1168       C  0.40676003  0.83831999  0.93128571     0.04400
C1169       C  0.44002496  0.83533690  0.91744210    -0.20200
C1170       C  0.44588787  0.82501822  0.88375333    -0.12500
C1171       C  0.41730682  0.81367183  0.86453830     0.13200
C1172       C  0.38425392  0.81368018  0.87939954    -0.23000
C1173       C  0.40349988  0.85615948  0.96520432    -0.06000
H1174       H  0.46099999  0.84636111  0.93110451     0.14700
C1175       C  0.42070715  0.80234868  0.82801522    -0.16200
H1176       H  0.36264432  0.80508114  0.86443309     0.09000
H1177       H  0.29818475  0.79739878  0.01257161     0.06900
H1178       H  0.28576915  0.76972330  0.97824276     0.08100
H1179       H  0.25538705  0.79880038  0.99567558     0.07100
H1180       H  0.35220250  0.86842340  0.86380247     0.02000
H1181       H  0.32169014  0.90100525  0.87681944     0.02500
H1182       H  0.30729736  0.86378894  0.85458815     0.06000
H1183       H  0.41535071  0.88173000  0.96360618     0.05000
H1184       H  0.41778681  0.84130722  0.98486375    -0.00800
H1185       H  0.37650848  0.86020284  0.97343937     0.00700
H1186       H  0.41215010  0.77552737  0.82564055     0.04300
H1187       H  0.44753816  0.80352169  0.81854048     0.06300
H1188       H  0.40416204  0.81891862  0.81158927     0.07100
C1189       C  0.59922752  0.92877306  0.14577845    -0.22500
C1190       C  0.62806987  0.90795972  0.15384962     0.09500
C1191       C  0.62220652  0.87330908  0.16306230     0.09900
C1192       C  0.58858367  0.86055350  0.16205419    -0.17400
C1193       C  0.56056565  0.88024248  0.14984709    -0.27800
C1194       C  0.56618247  0.91505545  0.14184595     0.18200
C1195       C  0.66355271  0.92301012  0.15207662     0.12200
C1196       C  0.65046342  0.84809330  0.17263125    -0.12200
H1197       H  0.58456276  0.83393031  0.16847099     0.12500
C1198       C  0.53850192  0.93800059  0.12720564    -0.23000
H1199       H  0.60298849  0.95557885  0.13996435     0.08100
C1200       C  0.67642904  0.93948492  0.12246034     0.04400
C1201       C  0.70986368  0.95286003  0.12256507    -0.20200
C1202       C  0.73233991  0.94847849  0.15041526    -0.12500
C1203       C  0.71961419  0.93132250  0.17983289     0.13200
C1204       C  0.68512602  0.92073373  0.18074392    -0.23000
C1205       C  0.65657796  0.94240020  0.08952327    -0.06000
H1206       H  0.71890227  0.96565514  0.09981424     0.14700
C1207       C  0.74205397  0.92266579  0.21017654    -0.16200
H1208       H  0.67527091  0.90901998  0.20373494     0.09000
H1209       H  0.54879429  0.95443534  0.10665120     0.06900
H1210       H  0.52839693  0.95439674  0.14747588     0.08100
H1211       H  0.51644084  0.92401085  0.11697850     0.07100
H1212       H  0.64734425  0.84039451  0.19968852     0.02000
H1213       H  0.67668889  0.85782877  0.16902505     0.02500
H1214       H  0.64857731  0.82492335  0.15653117     0.06000
H1215       H  0.67241725  0.93165703  0.06838110     0.05000
H1216       H  0.65070098  0.96976911  0.08401768    -0.00800
H1217       H  0.63231051  0.92816144  0.08959928     0.00700
H1218       H  0.72795649  0.90802754  0.22985605     0.04300
H1219       H  0.75128653  0.94619608  0.22260193     0.06300
H1220       H  0.76431454  0.90650768  0.20189299     0.07100
C1221       C  0.68893472  0.85297001  0.08246153    -0.22500
C1222       C  0.66525974  0.84318097  0.05765021     0.09500
C1223       C  0.67462837  0.84350436  0.02304135     0.09900
C1224       C  0.70755135  0.85396063  0.01386551    -0.17400
C1225       C  0.73190385  0.86163610  0.03870179    -0.27800
C1226       C  0.72256534  0.86141995  0.07344713     0.18200
C1227       C  0.62939956  0.83774582  0.06781295     0.12200
C1228       C  0.65038465  0.83115700  0.99616111    -0.12200
H1229       H  0.71477951  0.85486325  0.98734750     0.12500
C1230       C  0.74814350  0.86953523  0.10091858    -0.23000
H1231       H  0.68110091  0.85384607  0.10884750     0.08100
C1232       C  0.61879365  0.80913985  0.08676877     0.04400
C1233       C  0.58482636  0.80842945  0.09900584    -0.20200
C1234       C  0.56185168  0.83588298  0.09272094    -0.12500
C1235       C  0.57214852  0.86283380  0.07084712     0.13200
C1236       C  0.60575557  0.86337815  0.05905617    -0.23000
C1237       C  0.64324852  0.77974494  0.09408491    -0.06000
H1238       H  0.57675344  0.78748963  0.11509522     0.14700
C1239       C  0.54938273  0.89215781  0.05965724    -0.16200
H1240       H  0.61405947  0.88488389  0.04377385     0.09000
H1241       H  0.73631858  0.86869522  0.12669246     0.06900
H1242       H  0.75823873  0.89558386  0.09676461     0.08100
H1243       H  0.76979758  0.85061989  0.10026915     0.07100
H1244       H  0.62746633  0.84834609  0.99430785     0.02000
H1245       H  0.64233084  0.80482943  0.00255145     0.02500
H1246       H  0.66303500  0.83021020  0.97106035     0.06000
H1247       H  0.63067985  0.75936475  0.10910601     0.05000
H1248       H  0.66570144  0.78872841  0.10876204    -0.00800
H1249       H  0.65243995  0.76847279  0.06968935     0.00700
H1250       H  0.56203383  0.91663206  0.06527524     0.04300
H1251       H  0.52411467  0.89205760  0.07206085     0.06300
H1252       H  0.54564740  0.89110420  0.03169972     0.07100
C1253       C  0.30241652  0.89098447  0.14376508    -0.22500
C1254       C  0.32888774  0.91191117  0.13218576     0.09500
C1255       C  0.32051681  0.94259453  0.11450596     0.09900
C1256       C  0.28604455  0.95234222  0.11062784    -0.17400
C1257       C  0.26011993  0.93333962  0.12548611    -0.27800
C1258       C  0.26801208  0.90182395  0.14151156     0.18200
C1259       C  0.36490112  0.90022216  0.13707274     0.12200
C1260       C  0.34743623  0.96648511  0.10151211    -0.12200
H1261       H  0.27931320  0.97587541  0.09742968     0.12500
C1262       C  0.24026769  0.87936880  0.15557243    -0.23000
H1263       H  0.30871906  0.86628066  0.15492652     0.08100
C1264       C  0.37895655  0.89178007  0.16942983     0.04400
C1265       C  0.41234198  0.87744431  0.17112902    -0.20200
C1266       C  0.43222958  0.87369431  0.14147838    -0.12500
C1267       C  0.41973227  0.88743597  0.11042589     0.13200
C1268       C  0.38566018  0.89762726  0.10820508    -0.23000
C1269       C  0.35954502  0.89870795  0.20202237    -0.06000
H1270       H  0.42295712  0.86914661  0.19536297     0.14700
C1271       C  0.44175984  0.89259040  0.07931567    -0.16200
H1272       H  0.37560570  0.90400168  0.08346785     0.09000
H1273       H  0.25105767  0.85486601  0.16568543     0.06900
H1274       H  0.22167999  0.87329471  0.13507264     0.08100
H1275       H  0.22654215  0.89254081  0.17675325     0.07100
H1276       H  0.36175911  0.95595322  0.07951721     0.02000
H1277       H  0.36529205  0.97268396  0.12252982     0.02500
H1278       H  0.33544315  0.99018279  0.09159151     0.06000
H1279       H  0.37572662  0.89307994  0.22474940     0.05000
H1280       H  0.33653865  0.88254081  0.20379312    -0.00800
H1281       H  0.35155247  0.92611872  0.20304200     0.00700
H1282       H  0.43239540  0.87691862  0.05780339     0.04300
H1283       H  0.46897169  0.88625807  0.08428192     0.06300
H1284       H  0.44050648  0.91996347  0.07170196     0.07100
C1285       C  0.37284030  0.80965956  0.12345072    -0.22500
C1286       C  0.36319517  0.81407848  0.08916506     0.09500
C1287       C  0.38848556  0.80754600  0.06421865     0.09900
C1288       C  0.42337931  0.80809289  0.07338398    -0.17400
C1289       C  0.43384042  0.80959003  0.10787568    -0.27800
C1290       C  0.40763611  0.80386810  0.13245402     0.18200
C1291       C  0.32828498  0.82808625  0.07929653     0.12200
C1292       C  0.37852089  0.79911871  0.02820330    -0.12200
H1293       H  0.44116265  0.80955943  0.05272077     0.12500
C1294       C  0.41600173  0.79329221  0.16846442    -0.23000
H1295       H  0.35383539  0.81216236  0.14346810     0.08100
C1296       C  0.29733652  0.81218434  0.08845625     0.04400
C1297       C  0.26589859  0.82585797  0.07639037    -0.20200
C1298       C  0.26415987  0.85437797  0.05428886    -0.12500
C1299       C  0.29500243  0.87085415  0.04575384     0.13200
C1300       C  0.32637715  0.85746368  0.05832942    -0.23000
C1301       C  0.29725064  0.77903530  0.10812081    -0.06000
H1302       H  0.24236893  0.81274834  0.08260501     0.14700
C1303       C  0.29651203  0.90099696  0.02184727    -0.16200
H1304       H  0.34990613  0.86895179  0.04976926     0.09000
H1305       H  0.40475497  0.81170382  0.18697581     0.06900
H1306       H  0.44415727  0.79091805  0.17279051     0.08100
H1307       H  0.40466753  0.76793097  0.17350552     0.07100
H1308       H  0.36498728  0.82099217  0.01607177     0.02000
H1309       H  0.36114812  0.77691083  0.02841286     0.02500
H1310       H  0.40127694  0.79190221  0.01248859     0.06000
H1311       H  0.27107999  0.76820284  0.10952330     0.05000
H1312       H  0.30597338  0.78307354  0.13462890    -0.00800
H1313       H  0.31432529  0.75986718  0.09538893     0.00700
H1314       H  0.30826618  0.92287753  0.03523466     0.04300
H1315       H  0.27104192  0.90959504  0.01234926     0.06300
H1316       H  0.31271169  0.89417105  0.99944553     0.07100
C1317       C  0.50617111  0.75483820  0.02922036    -0.22500
C1318       C  0.50767784  0.77796578  0.00169638     0.09500
C1319       C  0.50550100  0.81342615  0.00820477     0.09900
C1320       C  0.50173477  0.82482009  0.04128348    -0.17400
C1321       C  0.50181231  0.80253378  0.06903780    -0.27800
C1322       C  0.50346848  0.76686873  0.06314760     0.18200
C1323       C  0.51348242  0.76622809  0.96632970     0.12200
C1324       C  0.50748127  0.84075613  0.98134849    -0.12200
H1325       H  0.49752126  0.85175102  0.04533892     0.12500
C1326       C  0.50235191  0.74136877  0.09180697    -0.23000
H1327       H  0.50787699  0.72758546  0.02432899     0.08100
C1328       C  0.54581650  0.77077482  0.95114322     0.04400
C1329       C  0.54714473  0.78049766  0.91677337    -0.20200
C1330       C  0.51663164  0.78842666  0.89840770    -0.12500
C1331       C  0.48815791  0.76921838  0.90981699     0.13200
C1332       C  0.48524860  0.76153974  0.94478952    -0.23000
C1333       C  0.57871492  0.76835454  0.97122706    -0.06000
H1334       H  0.57219411  0.78164376  0.90573223     0.14700
C1335       C  0.46528938  0.75092340  0.88534884    -0.16200
H1336       H  0.46105575  0.75292636  0.95513987     0.09000
H1337       H  0.52618306  0.72525730  0.09152607     0.06900
H1338       H  0.47977150  0.72473898  0.08847304     0.08100
H1339       H  0.50022232  0.75385345  0.11710736     0.07100
H1340       H  0.51042019  0.83059851  0.95536002     0.02000
H1341       H  0.52982541  0.85699068  0.98666210     0.02500
H1342       H  0.48397789  0.85727651  0.98251114     0.06000
H1343       H  0.59618127  0.74885299  0.95956410     0.05000
H1344       H  0.57426402  0.76096976  0.99816987    -0.00800
H1345       H  0.59147515  0.79340975  0.97075719     0.00700
H1346       H  0.47048413  0.72297193  0.88743691     0.04300
H1347       H  0.47055524  0.75859216  0.85864542     0.06300
H1348       H  0.43784223  0.75546541  0.89189128     0.07100
C1349       C  0.69490160  0.10433381  0.85121281    -0.22500
C1350       C  0.67565623  0.09252017  0.82331157     0.09500
C1351       C  0.69207728  0.06969150  0.80046291     0.09900
C1352       C  0.72457772  0.05509291  0.80900357    -0.17400
C1353       C  0.74197769  0.06350310  0.83947410    -0.27800
C1354       C  0.72823263  0.09105855  0.85856255     0.18200
C1355       C  0.63753459  0.10074079  0.82176968     0.12200
C1356       C  0.67573499  0.06154413  0.76677316    -0.12200
H1357       H  0.73674412  0.03743713  0.79132405     0.12500
C1358       C  0.75004791  0.10863781  0.88429060    -0.23000
H1359       H  0.68349849  0.12366067  0.86770341     0.08100
C1360       C  0.61571599  0.08721213  0.84683114     0.04400
C1361       C  0.58213392  0.10052953  0.85072496    -0.20200
C1362       C  0.56713452  0.12376319  0.82709829    -0.12500
C1363       C  0.58745764  0.13305507  0.79854741     0.13200
C1364       C  0.62274698  0.12273742  0.79700118    -0.23000
C1365       C  0.62758564  0.05741976  0.86853392    -0.06000
H1366       H  0.56779638  0.09290817  0.87295338     0.14700
C1367       C  0.57304529  0.15479970  0.77005339    -0.16200
H1368       H  0.63876319  0.13235833  0.77667128     0.09000
H1369       H  0.73753452  0.13288238  0.89252432     0.06900
H1370       H  0.77501765  0.11553551  0.87264209     0.08100
H1371       H  0.75473000  0.09152992  0.90643311     0.07100
H1372       H  0.67228219  0.08541427  0.75172229     0.02000
H1373       H  0.65022305  0.04997809  0.77079545     0.02500
H1374       H  0.69211730  0.04383069  0.75143101     0.06000
H1375       H  0.63217258  0.03472601  0.85203563     0.05000
H1376       H  0.60840387  0.05079616  0.88834037    -0.00800
H1377       H  0.65199386  0.06308563  0.88125706     0.00700
H1378       H  0.58794616  0.17860467  0.76758992     0.04300
H1379       H  0.54563268  0.16202076  0.77405464     0.06300
H1380       H  0.57500264  0.14036630  0.74576224     0.07100
C1381       C  0.62282812  0.17553064  0.88974599    -0.22500
C1382       C  0.62484057  0.15704213  0.92059968     0.09500
C1383       C  0.59371555  0.14624702  0.93544182     0.09900
C1384       C  0.56310629  0.14835410  0.91640383    -0.17400
C1385       C  0.56123372  0.16609400  0.88520317    -0.27800
C1386       C  0.59141067  0.18168260  0.87296496     0.18200
C1387       C  0.65964371  0.15231654  0.93693892     0.12200
C1388       C  0.59155603  0.13365185  0.97150010    -0.12200
H1389       H  0.54042628  0.13600685  0.92591209     0.12500
C1390       C  0.59137206  0.20493153  0.84234154    -0.23000
H1391       H  0.64606876  0.18563101  0.87861343     0.08100
C1392       C  0.67458748  0.12027802  0.94705343     0.04400
C1393       C  0.70932658  0.11845887  0.95730336    -0.20200
C1394       C  0.73033932  0.14720058  0.95614379    -0.12500
C1395       C  0.71467487  0.17959509  0.94813333     0.13200
C1396       C  0.67974625  0.18148682  0.93955917    -0.23000
C1397       C  0.65579200  0.08707325  0.94640270    -0.06000
H1398       H  0.72057744  0.09389056  0.96447341     0.14700
C1399       C  0.73416974  0.21270127  0.94711591    -0.16200
H1400       H  0.66817371  0.20615964  0.93327236     0.09000
H1401       H  0.61016634  0.19522933  0.82323724     0.06900
H1402       H  0.59929282  0.23084677  0.85031774     0.08100
H1403       H  0.56569230  0.20741519  0.83021079     0.07100
H1404       H  0.61644166  0.13505986  0.98503670     0.02000
H1405       H  0.58274747  0.10684225  0.97149321     0.02500
H1406       H  0.57291262  0.14993490  0.98588283     0.06000
H1407       H  0.67180705  0.06736554  0.93325842     0.05000
H1408       H  0.63069789  0.08912922  0.93333765    -0.00800
H1409       H  0.65176795  0.07796370  0.97282587     0.00700
H1410       H  0.75504554  0.21097656  0.92782958     0.04300
H1411       H  0.74492344  0.21841887  0.97262354     0.06300
H1412       H  0.71744491  0.23491492  0.93992168     0.07100
C1413       C  0.38941954  0.08509218  0.84845993    -0.22500
C1414       C  0.36997527  0.08987080  0.81865238     0.09500
C1415       C  0.38561124  0.10668463  0.79073742     0.09900
C1416       C  0.41857714  0.12083004  0.79465228    -0.17400
C1417       C  0.43634453  0.11921737  0.82591654    -0.27800
C1418       C  0.42241160  0.09873552  0.85219720     0.18200
C1419       C  0.33218036  0.08221990  0.81987970     0.12200
C1420       C  0.36750112  0.11218377  0.75720449    -0.12200
H1421       H  0.42885714  0.13616324  0.77419356     0.12500
C1422       C  0.44145099  0.09061931  0.88466887    -0.23000
H1423       H  0.37826542  0.07175432  0.86980058     0.08100
C1424       C  0.31742707  0.05325435  0.80445663     0.04400
C1425       C  0.28176829  0.04745485  0.80859143    -0.20200
C1426       C  0.26018527  0.07066656  0.82652078    -0.12500
C1427       C  0.27485712  0.09995702  0.84068425     0.13200
C1428       C  0.31064358  0.10431540  0.83877108    -0.23000
C1429       C  0.33937752  0.02783478  0.78493372    -0.06000
H1430       H  0.27069031  0.02459929  0.79794243     0.14700
C1431       C  0.25286677  0.12619151  0.85872350    -0.16200
H1432       H  0.32206261  0.12480460  0.85286132     0.09000
H1433       H  0.44501957  0.06249860  0.88703951     0.06900
H1434       H  0.42609894  0.09974512  0.90682031     0.08100
H1435       H  0.46728219  0.10201145  0.88555325     0.07100
H1436       H  0.34126844  0.10163297  0.75686396     0.02000
H1437       H  0.38272225  0.09967795  0.73658715     0.02500
H1438       H  0.36523130  0.14000854  0.75170451     0.06000
H1439       H  0.32414248  0.00580324  0.77608438     0.05000
H1440       H  0.36055530  0.01780394  0.80128673    -0.00800
H1441       H  0.35074153  0.04025503  0.76225760     0.00700
H1442       H  0.26844356  0.14791963  0.86687927     0.04300
H1443       H  0.24048894  0.11466812  0.88141201     0.06300
H1444       H  0.23283889  0.13650352  0.84115359     0.07100
C1445       C  0.29864582  0.20005039  0.90117239    -0.22500
C1446       C  0.32703110  0.17808840  0.90593464     0.09500
C1447       C  0.32285601  0.14933441  0.92766587     0.09900
C1448       C  0.29074295  0.14334504  0.94368989    -0.17400
C1449       C  0.26184732  0.16507799  0.93846724    -0.27800
C1450       C  0.26619852  0.19320567  0.91566222     0.18200
C1451       C  0.36090956  0.18575838  0.88866515     0.12200
C1452       C  0.35214153  0.12436365  0.93342435    -0.12200
H1453       H  0.28823878  0.12141666  0.96037449     0.12500
C1454       C  0.23655268  0.21539078  0.90462510    -0.23000
H1455       H  0.30159912  0.22221928  0.88486616     0.08100
C1456       C  0.36684534  0.18351004  0.85287366     0.04400
C1457       C  0.40117741  0.18337752  0.84062857    -0.20200
C1458       C  0.42937089  0.18676000  0.86287446    -0.12500
C1459       C  0.42007470  0.20539733  0.89280439     0.13200
C1460       C  0.38760101  0.19984588  0.90785685    -0.23000
C1461       C  0.33845187  0.18378817  0.82680707    -0.06000
H1462       H  0.40583522  0.18101505  0.81362850     0.14700
C1463       C  0.43825525  0.23739661  0.90314872    -0.16200
H1464       H  0.38199072  0.20988798  0.93302484     0.09000
H1465       H  0.21582854  0.19961919  0.89371612     0.06900
H1466       H  0.24385704  0.23469896  0.88524731     0.08100
H1467       H  0.22758536  0.22912836  0.92716062     0.07100
H1468       H  0.37410031  0.13752802  0.94503097     0.02000
H1469       H  0.36031710  0.11336214  0.90870547     0.02500
H1470       H  0.34481520  0.10308597  0.95059328     0.06000
H1471       H  0.34157587  0.16169632  0.80940914     0.05000
H1472       H  0.33999837  0.20748922  0.81129778    -0.00800
H1473       H  0.31247859  0.18308775  0.83817387     0.00700
H1474       H  0.42046351  0.25974368  0.89997259     0.04300
H1475       H  0.46091227  0.24209677  0.88670842     0.06300
H1476       H  0.44581480  0.23617973  0.93038494     0.07100
C1477       C  0.51594998  0.96019960  0.77504350    -0.22500
C1478       C  0.49862354  0.98566990  0.79392204     0.09500
C1479       C  0.47929899  0.97600028  0.82259490     0.09900
C1480       C  0.48508834  0.94401518  0.83675699    -0.17400
C1481       C  0.50222786  0.91795120  0.81880877    -0.27800
C1482       C  0.51603527  0.92578011  0.78618212     0.18200
C1483       C  0.50940883  0.02172011  0.79275708     0.12200
C1484       C  0.45502451  0.00020565  0.84078991    -0.12200
H1485       H  0.47623421  0.93971059  0.86243166     0.12500
C1486       C  0.53107015  0.89886446  0.76292571    -0.23000
H1487       H  0.53035073  0.96724724  0.75252726     0.08100
C1488       C  0.52331924  0.03465461  0.82306017     0.04400
C1489       C  0.51455072  0.06749282  0.83268117    -0.20200
C1490       C  0.50316325  0.09147557  0.80881146    -0.12500
C1491       C  0.49599050  0.08049294  0.77515732     0.13200
C1492       C  0.49663942  0.04494872  0.76820005    -0.23000
C1493       C  0.54440002  0.01331949  0.84730845    -0.06000
H1494       H  0.51804874  0.07486850  0.85896611     0.14700
C1495       C  0.48761436  0.10507463  0.74678016    -0.16200
H1496       H  0.48665843  0.03549351  0.74430192     0.09000
H1497       H  0.55835961  0.90456450  0.75732680     0.06900
H1498       H  0.51653236  0.89900474  0.73857891     0.08100
H1499       H  0.52963290  0.87279270  0.77393567     0.07100
H1500       H  0.45181916  0.02514838  0.82752512     0.02000
H1501       H  0.46402229  0.00458597  0.86724783     0.02500
H1502       H  0.42955413  0.98830551  0.84135350     0.06000
H1503       H  0.56959663  0.02525968  0.85079844     0.05000
H1504       H  0.54959574  0.98729419  0.83723868    -0.00800
H1505       H  0.53116954  0.01228002  0.87232988     0.00700
H1506       H  0.50702205  0.10193286  0.72619638     0.04300
H1507       H  0.48798064  0.13207845  0.75537518     0.06300
H1508       H  0.46184024  0.09955757  0.73619125     0.07100
C1509       C  0.62101955  0.11777809  0.20031634    -0.22500
C1510       C  0.63999474  0.09499837  0.17971062     0.09500
C1511       C  0.62308932  0.07368901  0.15656863     0.09900
C1512       C  0.58817225  0.07828216  0.15194870    -0.17400
C1513       C  0.56843554  0.10102250  0.17170504    -0.27800
C1514       C  0.58503167  0.12070108  0.19682215     0.18200
C1515       C  0.67749480  0.09204143  0.18180437     0.12200
C1516       C  0.64172715  0.04623068  0.13605580    -0.12200
H1517       H  0.57739906  0.06631328  0.13017577     0.12500
C1518       C  0.56569386  0.14577070  0.21913330    -0.23000
H1519       H  0.63425042  0.13348972  0.21866644     0.08100
C1520       C  0.69810581  0.10802760  0.15716530     0.04400
C1521       C  0.72809232  0.09123834  0.14545676    -0.20200
C1522       C  0.73809266  0.05927575  0.15883297    -0.12500
C1523       C  0.71969070  0.04645036  0.18760850     0.13200
C1524       C  0.68983106  0.06316167  0.19856905    -0.23000
C1525       C  0.68779720  0.14243037  0.14322389    -0.06000
H1526       H  0.74414295  0.10354029  0.12670497     0.14700
C1527       C  0.72900809  0.01474588  0.20746264    -0.16200
H1528       H  0.67395375  0.05138794  0.21795342     0.09000
H1529       H  0.57553682  0.17190613  0.21497087     0.06900
H1530       H  0.56961469  0.13866115  0.24628023     0.08100
H1531       H  0.53762445  0.14623602  0.21406294     0.07100
H1532       H  0.65221753  0.02616570  0.15340443     0.02000
H1533       H  0.66316500  0.05718932  0.12140115     0.02500
H1534       H  0.62442328  0.03340865  0.11775784     0.06000
H1535       H  0.70620174  0.15150822  0.12368287     0.05000
H1536       H  0.68661818  0.16137480  0.16425265    -0.00800
H1537       H  0.66207301  0.14073072  0.13166537     0.00700
H1538       H  0.73064945  0.02104546  0.23495639     0.04300
H1539       H  0.75357715  0.00296452  0.20004939     0.06300
H1540       H  0.70835467  0.99583554  0.20433974     0.07100
C1541       C  0.67918096  0.11317950  0.06404406    -0.22500
C1542       C  0.65932256  0.14299298  0.05815023     0.09500
C1543       C  0.67497000  0.17096892  0.04183615     0.09900
C1544       C  0.71063663  0.16962334  0.03567782    -0.17400
C1545       C  0.73054350  0.13979270  0.04215181    -0.27800
C1546       C  0.71375814  0.11042008  0.05439448     0.18200
C1547       C  0.62330407  0.14438360  0.07161490     0.12200
C1548       C  0.65414945  0.20139078  0.02920838    -0.12200
H1549       H  0.72285930  0.19177651  0.02480822     0.12500
C1550       C  0.73162361  0.07598591  0.05748582    -0.23000
H1551       H  0.66741167  0.09161063  0.07622843     0.08100
C1552       C  0.60046105  0.11699785  0.06679630     0.04400
C1553       C  0.57046563  0.11571587  0.08619576    -0.20200
C1554       C  0.56219616  0.14047781  0.11086491    -0.12500
C1555       C  0.58397443  0.16854740  0.11494355     0.13200
C1556       C  0.61411053  0.17025121  0.09518289    -0.23000
C1557       C  0.60745746  0.08740443  0.04301574    -0.06000
H1558       H  0.55403022  0.09386418  0.08323283     0.14700
C1559       C  0.57711225  0.19607708  0.14092335    -0.16200
H1560       H  0.63201513  0.19040617  0.10059384     0.09000
H1561       H  0.71459791  0.05637218  0.06861931     0.06900
H1562       H  0.75453278  0.07784414  0.07403085     0.08100
H1563       H  0.73960679  0.06691933  0.03181863     0.07100
H1564       H  0.64260000  0.21599980  0.05059852     0.02000
H1565       H  0.63340983  0.19254638  0.01209354     0.02500
H1566       H  0.67027629  0.21931191  0.01444677     0.06000
H1567       H  0.58482806  0.08318611  0.02660827     0.05000
H1568       H  0.61222557  0.06374591  0.05813037    -0.00800
H1569       H  0.62966114  0.09159270  0.02605974     0.00700
H1570       H  0.59866933  0.19648089  0.15946003     0.04300
H1571       H  0.55288594  0.19220761  0.15521517     0.06300
H1572       H  0.57526683  0.22130402  0.12795682     0.07100
C1573       C  0.39898632  0.04059485  0.13331223    -0.22500
C1574       C  0.37364592  0.04987192  0.15720330     0.09500
C1575       C  0.38306277  0.07206215  0.18424272     0.09900
C1576       C  0.41610322  0.08635648  0.18455536    -0.17400
C1577       C  0.44002439  0.07955642  0.15859189    -0.27800
C1578       C  0.43111727  0.05618012  0.13257522     0.18200
C1579       C  0.33692999  0.03972557  0.15099739     0.12200
C1580       C  0.35832466  0.08212494  0.21228780    -0.12200
H1581       H  0.42272020  0.10446701  0.20424745     0.12500
C1582       C  0.45382302  0.04807099  0.10246175    -0.23000
H1583       H  0.39317407  0.02248139  0.11352782     0.08100
C1584       C  0.31945424  0.04781927  0.12009257     0.04400
C1585       C  0.28378267  0.04326541  0.11760917    -0.20200
C1586       C  0.26448898  0.03044424  0.14479784    -0.12500
C1587       C  0.28232921  0.01993466  0.17484087     0.13200
C1588       C  0.31821670  0.02401266  0.17707526    -0.23000
C1589       C  0.33771108  0.06191174  0.08942265    -0.06000
H1590       H  0.27077812  0.05012575  0.09408416     0.14700
C1591       C  0.26421351  0.00433554  0.20485478    -0.16200
H1592       H  0.33171222  0.01537131  0.19970825     0.09000
H1593       H  0.43944800  0.05320800  0.07848981     0.06900
H1594       H  0.46120759  0.02052992  0.10282907     0.08100
H1595       H  0.47711908  0.06370457  0.10177382     0.07100
H1596       H  0.35317018  0.05974252  0.22874312     0.02000
H1597       H  0.33380151  0.09225670  0.20158443     0.02500
H1598       H  0.36902365  0.10222986  0.22896642     0.06000
H1599       H  0.31930883  0.07095174  0.06959080     0.05000
H1600       H  0.35446833  0.04234329  0.07718942    -0.00800
H1601       H  0.35366933  0.08349441  0.09727046     0.00700
H1602       H  0.25073428  0.98101402  0.19685487     0.04300
H1603       H  0.24567687  0.02318454  0.21589878     0.06300
H1604       H  0.28244652  0.99674493  0.22542996     0.07100
C1605       C  0.37761209  0.16821489  0.12931385    -0.22500
C1606       C  0.36680047  0.15460091  0.09816818     0.09500
C1607       C  0.39056713  0.13655750  0.07727355     0.09900
C1608       C  0.42339956  0.12951667  0.08976251    -0.17400
C1609       C  0.43415423  0.14203604  0.12131483    -0.27800
C1610       C  0.41129649  0.16242207  0.14102318     0.18200
C1611       C  0.33030264  0.15677900  0.08818551     0.12200
C1612       C  0.38138479  0.12367474  0.04212963    -0.12200
H1613       H  0.44043490  0.11337817  0.07497478     0.12500
C1614       C  0.42139453  0.17774404  0.17466435    -0.23000
H1615       H  0.35959314  0.18292521  0.14476548     0.08100
C1616       C  0.30504234  0.13711654  0.10445718     0.04400
C1617       C  0.27522326  0.12870558  0.08632096    -0.20200
C1618       C  0.26839282  0.14335280  0.05429670    -0.12500
C1619       C  0.29075346  0.16923618  0.04212234     0.13200
C1620       C  0.32212759  0.17403994  0.05823409    -0.23000
C1621       C  0.30880538  0.12666947  0.14119583    -0.06000
H1622       H  0.25596086  0.11298118  0.09829366     0.14700
C1623       C  0.28250370  0.19407397  0.01376115    -0.16200
H1624       H  0.34057979  0.19142285  0.04728909     0.09000
H1625       H  0.40447081  0.16788687  0.19511433     0.06900
H1626       H  0.41824927  0.20600505  0.17333171     0.08100
H1627       H  0.44847176  0.17178114  0.18169878     0.07100
H1628       H  0.37669246  0.14562231  0.02472960     0.02000
H1629       H  0.35790360  0.10821924  0.04271950     0.02500
H1630       H  0.40233823  0.10754058  0.03097994     0.06000
H1631       H  0.28741138  0.11029482  0.14972580     0.05000
H1632       H  0.30860050  0.14985416  0.15746275    -0.00800
H1633       H  0.33347253  0.11274175  0.14514593     0.00700
H1634       H  0.28299691  0.22057281  0.02390521     0.04300
H1635       H  0.25699388  0.19090109  0.00249339     0.06300
H1636       H  0.30226831  0.19173577  0.99344523     0.07100
C1637       C  0.53138663  0.00269631  0.19818944    -0.22500
C1638       C  0.50686149  0.99570149  0.22308270     0.09500
C1639       C  0.48730804  0.02344380  0.23647373     0.09900
C1640       C  0.48969780  0.05599547  0.22088453    -0.17400
C1641       C  0.50729753  0.05954951  0.18965457    -0.27800
C1642       C  0.52589834  0.03087623  0.17697563     0.18200
C1643       C  0.49242930  0.96096832  0.21911751     0.12200
C1644       C  0.46331824  0.01818415  0.26598941    -0.12200
H1645       H  0.47522271  0.07759468  0.23108726     0.12500
C1646       C  0.53106997  0.02477331  0.13944045    -0.23000
H1647       H  0.54799963  0.98203900  0.18942298     0.08100
C1648       C  0.46870374  0.95682552  0.19228367     0.04400
C1649       C  0.47132750  0.92785343  0.17189403    -0.20200
C1650       C  0.49203637  0.89934098  0.18067275    -0.12500
C1651       C  0.51088525  0.90093134  0.21165246     0.13200
C1652       C  0.51217628  0.93225891  0.22955089    -0.23000
C1653       C  0.44384610  0.98486350  0.18158489    -0.06000
H1654       H  0.45917461  0.92927308  0.14724341     0.14700
C1655       C  0.53085696  0.87076031  0.22579103    -0.16200
H1656       H  0.53038033  0.93496043  0.25023697     0.09000
H1657       H  0.51192933  0.00620947  0.13061978     0.06900
H1658       H  0.55715281  0.01380622  0.13444172     0.08100
H1659       H  0.52669639  0.04795322  0.12387520     0.07100
H1660       H  0.47831681  0.00925544  0.28847878     0.02000
H1661       H  0.44400486  0.99867897  0.25968934     0.02500
H1662       H  0.44939358  0.04227686  0.27286305     0.06000
H1663       H  0.42733090  0.97686049  0.16003230     0.05000
H1664       H  0.45810194  0.00753120  0.17326272    -0.00800
H1665       H  0.42651855  0.99179300  0.20302562     0.00700
H1666       H  0.55861129  0.87682447  0.22700691     0.04300
H1667       H  0.52767164  0.84729203  0.21038252     0.06300
H1668       H  0.52165783  0.86517915  0.25197444     0.07100
C1669       C  0.49727700  0.20491632  0.04366871    -0.22500
C1670       C  0.49994687  0.18018507  0.01778063     0.09500
C1671       C  0.50326659  0.14510609  0.02645226     0.09900
C1672       C  0.49995382  0.13559233  0.06002292    -0.17400
C1673       C  0.49693100  0.15971769  0.08596523    -0.27800
C1674       C  0.49628046  0.19493614  0.07812795     0.18200
C1675       C  0.49265390  0.18956815  0.98222293     0.12200
C1676       C  0.50875203  0.11642966  0.00117946    -0.12200
H1677       H  0.50043873  0.10856465  0.06628235     0.12500
C1678       C  0.49356923  0.22201780  0.10519425    -0.23000
H1679       H  0.49462767  0.23175088  0.03697048     0.08100
C1680       C  0.46652303  0.17225737  0.96517651     0.04400
C1681       C  0.46987171  0.16705598  0.93053484    -0.20200
C1682       C  0.49300585  0.18591910  0.91096509    -0.12500
C1683       C  0.51354157  0.21054705  0.92773719     0.13200
C1684       C  0.51487129  0.21035962  0.96359317    -0.23000
C1685       C  0.43612941  0.15736269  0.98329295    -0.06000
H1686       H  0.45275923  0.14949196  0.91854080     0.14700
C1687       C  0.53393164  0.23683517  0.90882558    -0.16200
H1688       H  0.53366897  0.22556724  0.97679641     0.09000
H1689       H  0.46985373  0.23775672  0.10106853     0.06900
H1690       H  0.51622251  0.23880612  0.10366296     0.08100
H1691       H  0.49243672  0.21099683  0.13123506     0.07100
H1692       H  0.48601673  0.09968151  0.00102918     0.02000
H1693       H  0.53140331  0.10067985  0.00885193     0.02500
H1694       H  0.51355435  0.12551363  0.97506132     0.06000
H1695       H  0.43515438  0.12937143  0.97881950     0.05000
H1696       H  0.41235094  0.16975709  0.97333156    -0.00800
H1697       H  0.43653959  0.16230707  0.01109531     0.00700
H1698       H  0.52516614  0.26280944  0.91679095     0.04300
H1699       H  0.53041295  0.23500896  0.88084905     0.06300
H1700       H  0.56167611  0.23375511  0.91501869     0.07100
C1701       C  0.94113652  0.84290464  0.61327555    -0.22500
C1702       C  0.92733553  0.81343812  0.62731222     0.09500
C1703       C  0.90798061  0.79146608  0.60676637     0.09900
C1704       C  0.90249072  0.79997824  0.57227729    -0.17400
C1705       C  0.91378104  0.83119553  0.55880077    -0.27800
C1706       C  0.93378531  0.85291329  0.57992302     0.18200
C1707       C  0.93128138  0.80924628  0.66450349     0.12200
C1708       C  0.89208915  0.76001378  0.62163104    -0.12200
H1709       H  0.88698044  0.78356726  0.55650534     0.12500
C1710       C  0.94622681  0.88792246  0.57013718    -0.23000
H1711       H  0.95593388  0.85966186  0.62946497     0.08100
C1712       C  0.96153186  0.79474119  0.67866593     0.04400
C1713       C  0.97078798  0.80351990  0.71201840    -0.20200
C1714       C  0.94981504  0.82548544  0.73162781    -0.12500
C1715       C  0.91653752  0.83418656  0.71969559     0.13200
C1716       C  0.90816183  0.82727545  0.68562906    -0.23000
C1717       C  0.98425082  0.77000981  0.65925763    -0.06000
H1718       H  0.99485921  0.79381485  0.72243247     0.14700
C1719       C  0.88928538  0.84833826  0.74335161    -0.16200
H1720       H  0.88401359  0.83678134  0.67512230     0.09000
H1721       H  0.97465050  0.88850233  0.57059877     0.06900
H1722       H  0.93670510  0.89685437  0.54519023     0.08100
H1723       H  0.93749802  0.90688964  0.58939769     0.07100
H1724       H  0.87415496  0.76747600  0.64248893     0.02000
H1725       H  0.91253261  0.74274079  0.63200937     0.02500
H1726       H  0.87739061  0.74574265  0.60219514     0.06000
H1727       H  0.01078418  0.77954576  0.65825196     0.05000
H1728       H  0.97516561  0.76572501  0.63284829    -0.00800
H1729       H  0.98481130  0.74496946  0.67265446     0.00700
H1730       H  0.86470873  0.85373061  0.72975302     0.04300
H1731       H  0.89765146  0.87218695  0.75553854     0.06300
H1732       H  0.88428786  0.82929255  0.76370357     0.07100
C1733       C  0.83690679  0.87675996  0.61424834    -0.22500
C1734       C  0.85233538  0.90699695  0.62525921     0.09500
C1735       C  0.86980742  0.92738510  0.60149476     0.09900
C1736       C  0.87308565  0.91632397  0.56780696    -0.17400
C1737       C  0.86146073  0.88422159  0.55745827    -0.27800
C1738       C  0.84102534  0.86524852  0.58041724     0.18200
C1739       C  0.85272806  0.91636670  0.66189899     0.12200
C1740       C  0.88682660  0.96005178  0.61206029    -0.12200
H1741       H  0.88801055  0.93147751  0.55038236     0.12500
C1742       C  0.82315864  0.83311423  0.56990617    -0.23000
H1743       H  0.82270121  0.86149945  0.63233075     0.08100
C1744       C  0.82432394  0.93240738  0.67794800     0.04400
C1745       C  0.82821939  0.94582495  0.71092508    -0.20200
C1746       C  0.86039147  0.94527475  0.72760836    -0.12500
C1747       C  0.88915674  0.93025468  0.71054684     0.13200
C1748       C  0.88435399  0.91441007  0.67891940    -0.23000
C1749       C  0.79033051  0.93637727  0.65983869    -0.06000
H1750       H  0.80611118  0.95769648  0.72328895     0.14700
C1751       C  0.92539911  0.93210479  0.72409031    -0.16200
H1752       H  0.90619768  0.90262604  0.66595714     0.09000
H1753       H  0.79496385  0.83680316  0.57320360     0.06900
H1754       H  0.83184902  0.81140695  0.58622822     0.08100
H1755       H  0.82803072  0.82637844  0.54285988     0.07100
H1756       H  0.90706673  0.95487503  0.63133276     0.02000
H1757       H  0.86723110  0.97804547  0.62279500     0.02500
H1758       H  0.89995494  0.97247806  0.59036943     0.06000
H1759       H  0.77091556  0.95012573  0.67576481     0.05000
H1760       H  0.78019870  0.91079371  0.65357957    -0.00800
H1761       H  0.79376924  0.95118027  0.63592480     0.00700
H1762       H  0.92761343  0.91990526  0.74945227     0.04300
H1763       H  0.93291521  0.95928051  0.72605728     0.06300
H1764       H  0.94418450  0.91899481  0.70700875     0.07100
C1765       C  0.90993118  0.92546714  0.38514815    -0.22500
C1766       C  0.87839943  0.93307592  0.36982639     0.09500
C1767       C  0.84778821  0.92586333  0.38775532     0.09900
C1768       C  0.84981965  0.90620397  0.41769537    -0.17400
C1769       C  0.88185336  0.89581368  0.43126846    -0.27800
C1770       C  0.91228856  0.90737268  0.41546855     0.18200
C1771       C  0.87852748  0.94152985  0.33297915     0.12200
C1772       C  0.81330476  0.93981206  0.37610896    -0.12200
H1773       H  0.82641105  0.89873105  0.43046087     0.12500
C1774       C  0.94793828  0.90226096  0.42976585    -0.23000
H1775       H  0.93348461  0.93197326  0.37278734     0.08100
C1776       C  0.89867999  0.96773726  0.31865179     0.04400
C1777       C  0.89986135  0.97136338  0.28308029    -0.20200
C1778       C  0.88013889  0.95073551  0.26180529    -0.12500
C1779       C  0.86096842  0.92395929  0.27601422     0.13200
C1780       C  0.86114392  0.91934059  0.31124018    -0.23000
C1781       C  0.91732767  0.99325211  0.34029802    -0.06000
H1782       H  0.91476011  0.99166904  0.27191851     0.14700
C1783       C  0.84066609  0.89977692  0.25423701    -0.16200
H1784       H  0.84732756  0.89825868  0.32196902     0.09000
H1785       H  0.94770003  0.88876660  0.45414808     0.06900
H1786       H  0.96445747  0.88774799  0.41171288     0.08100
H1787       H  0.96002984  0.92738841  0.43395381     0.07100
H1788       H  0.80584642  0.92900434  0.35119242     0.02000
H1789       H  0.81445467  0.96809455  0.37384998     0.02500
H1790       H  0.79266884  0.93373653  0.39462917     0.06000
H1791       H  0.92837082  0.01377882  0.32441377     0.05000
H1792       H  0.93952557  0.98168064  0.35380943    -0.00800
H1793       H  0.89919918  0.00489259  0.35898235     0.00700
H1794       H  0.85734844  0.88882019  0.23389773     0.04300
H1795       H  0.81840173  0.91344456  0.24248715     0.06300
H1796       H  0.83037095  0.87824112  0.26940563     0.07100
C1797       C  0.93522180  0.82159701  0.37167880    -0.22500
C1798       C  0.90595380  0.83068360  0.35322744     0.09500
C1799       C  0.87392517  0.82975963  0.37056173     0.09900
C1800       C  0.87355063  0.82522604  0.40634542    -0.17400
C1801       C  0.90407926  0.82522030  0.42603683    -0.27800
C1802       C  0.93529991  0.82032941  0.40740496     0.18200
C1803       C  0.91077554  0.84036778  0.31644930     0.12200
C1804       C  0.83966007  0.83507368  0.35323205    -0.12200
H1805       H  0.84900231  0.82699709  0.41944873     0.12500
C1806       C  0.96950302  0.81516939  0.42333991    -0.23000
H1807       H  0.95907787  0.81866556  0.35782863     0.08100
C1808       C  0.93497366  0.86523014  0.30578205     0.04400
C1809       C  0.93911965  0.87223119  0.27120930    -0.20200
C1810       C  0.92177993  0.85409226  0.24598448    -0.12500
C1811       C  0.89911637  0.82798530  0.25617008     0.13200
C1812       C  0.89395159  0.82163216  0.29112266    -0.23000
C1813       C  0.95843609  0.88453601  0.32903563    -0.06000
H1814       H  0.95748818  0.89150058  0.26400035     0.14700
C1815       C  0.88118897  0.80571278  0.23070406    -0.16200
H1816       H  0.87750995  0.80090534  0.29877302     0.09000
H1817       H  0.97427665  0.83674761  0.44014399     0.06900
H1818       H  0.99067668  0.81483640  0.40446629     0.08100
H1819       H  0.97044057  0.79014304  0.43619102     0.07100
H1820       H  0.82412018  0.81176833  0.35649573     0.02000
H1821       H  0.84155320  0.84047485  0.32571941     0.02500
H1822       H  0.82561614  0.85697255  0.36512324     0.06000
H1823       H  0.95574429  0.91236009  0.32374969     0.05000
H1824       H  0.98558777  0.87678691  0.32400419    -0.00800
H1825       H  0.95326827  0.88014093  0.35608757     0.00700
H1826       H  0.86429499  0.78692656  0.24334293     0.04300
H1827       H  0.90047824  0.79101419  0.21547280     0.06300
H1828       H  0.86479343  0.82182058  0.21367781     0.07100
C1829       C  0.83474842  0.18579631  0.63520323    -0.22500
C1830       C  0.87793325  0.17670722  0.64925229     0.09500
C1831       C  0.91258608  0.17805687  0.61898498     0.09900
C1832       C  0.90466388  0.18800154  0.57583310    -0.17400
C1833       C  0.86193635  0.19770901  0.56077531    -0.27800
C1834       C  0.82634090  0.19730993  0.59126367     0.18200
C1835       C  0.88749250  0.16918878  0.68601281     0.12200
C1836       C  0.94906879  0.17748962  0.63053146    -0.12200
H1837       H  0.92690110  0.19245836  0.56083753     0.12500
C1838       C  0.79018325  0.20356333  0.57981390    -0.23000
H1839       H  0.81352847  0.18419184  0.65284358     0.08100
C1840       C  0.87809995  0.19058768  0.71373105     0.04400
C1841       C  0.89301923  0.18472870  0.74629112    -0.20200
C1842       C  0.91806379  0.15862007  0.75197286    -0.12500
C1843       C  0.92622641  0.13644706  0.72464437     0.13200
C1844       C  0.91094254  0.14191945  0.69254482    -0.23000
C1845       C  0.85383315  0.22069780  0.70909796    -0.06000
H1846       H  0.88580685  0.20139218  0.76715146     0.14700
C1847       C  0.95140393  0.10677960  0.72833468    -0.16200
H1848       H  0.91836002  0.12532995  0.67327255     0.09000
H1849       H  0.77895082  0.22554584  0.59409932     0.06900
H1850       H  0.77482315  0.18046021  0.58480868     0.08100
H1851       H  0.78958296  0.20948213  0.55215745     0.07100
H1852       H  0.95713460  0.15159945  0.63914342     0.02000
H1853       H  0.95214936  0.19629272  0.65136515     0.02500
H1854       H  0.96563925  0.18524725  0.60898997     0.06000
H1855       H  0.85106182  0.23583961  0.73289722     0.05000
H1856       H  0.82794108  0.21170928  0.70212525    -0.00800
H1857       H  0.86362215  0.23795514  0.68898417     0.00700
H1858       H  0.95308627  0.09106431  0.70485537     0.04300
H1859       H  0.94316011  0.08979746  0.74941684     0.06300
H1860       H  0.97761299  0.11629667  0.73332454     0.07100
C1861       C  0.87778957  0.12028060  0.61413266    -0.22500
C1862       C  0.85540294  0.09523080  0.62625813     0.09500
C1863       C  0.82327635  0.09210871  0.61024127     0.09900
C1864       C  0.81670938  0.11178181  0.58110166    -0.17400
C1865       C  0.84078122  0.13602722  0.57026873    -0.27800
C1866       C  0.86404862  0.15104742  0.59698349     0.18200
C1867       C  0.86215498  0.08001479  0.66053340     0.12200
C1868       C  0.79767655  0.06608798  0.62183094    -0.12200
H1869       H  0.79395430  0.10720844  0.56609679     0.12500
C1870       C  0.87416899  0.22311946  0.61248848    -0.23000
H1871       H  0.90304388  0.11851022  0.62295485     0.08100
C1872       C  0.88812183  0.05507687  0.66744466     0.04400
C1873       C  0.89163091  0.04186546  0.70086219    -0.20200
C1874       C  0.87071096  0.05418086  0.72758979    -0.12500
C1875       C  0.84696523  0.08139462  0.72092791     0.13200
C1876       C  0.84277166  0.09344891  0.68759909    -0.23000
C1877       C  0.91222685  0.04269422  0.63992924    -0.06000
H1878       H  0.91048298  0.02175123  0.70606062     0.14700
C1879       C  0.82667505  0.09896942  0.74893298    -0.16200
H1880       H  0.82436373  0.11403763  0.68254709     0.09000
H1881       H  0.89207031  0.23175462  0.63326854     0.06900
H1882       H  0.85218666  0.24049336  0.62095509     0.08100
H1883       H  0.88423298  0.24148692  0.59276121     0.07100
H1884       H  0.78844735  0.07223455  0.64790231     0.02000
H1885       H  0.80995412  0.04020150  0.62188956     0.02500
H1886       H  0.77494415  0.06558022  0.60472671     0.06000
H1887       H  0.92971732  0.02190041  0.64922514     0.05000
H1888       H  0.92832159  0.06401527  0.63098628    -0.00800
H1889       H  0.89740196  0.03285648  0.61815336     0.00700
H1890       H  0.84440911  0.10746393  0.76928771     0.04300
H1891       H  0.80732660  0.08149881  0.75971684     0.06300
H1892       H  0.81245020  0.12198028  0.73941178     0.07100
C1893       C  0.87656026  0.20619156  0.37644277    -0.22500
C1894       C  0.90719713  0.18863406  0.36759045     0.09500
C1895       C  0.92297603  0.16680208  0.39184997     0.09900
C1896       C  0.90754022  0.16221256  0.42380565    -0.17400
C1897       C  0.87642189  0.17887779  0.43257174    -0.27800
C1898       C  0.86093779  0.20148930  0.40858571     0.18200
C1899       C  0.91919578  0.18729625  0.33143419     0.12200
C1900       C  0.95597722  0.14774040  0.38360479    -0.12200
H1901       H  0.91957165  0.14487211  0.44185743     0.12500
C1902       C  0.82733581  0.21993933  0.41558445    -0.23000
H1903       H  0.86396542  0.22246118  0.35764900     0.08100
C1904       C  0.90299759  0.16529954  0.30841770     0.04400
C1905       C  0.92107118  0.15353055  0.27973175    -0.20200
C1906       C  0.95309480  0.16701414  0.27023842    -0.12500
C1907       C  0.96584999  0.19452350  0.28990089     0.13200
C1908       C  0.95020968  0.20243579  0.32156182    -0.23000
C1909       C  0.86618213  0.15510658  0.31350910    -0.06000
H1910       H  0.90908458  0.13473357  0.26353931     0.14700
C1911       C  0.99269054  0.21850848  0.27685759    -0.16200
H1912       H  0.96181486  0.22100236  0.33827433     0.09000
H1913       H  0.80796404  0.21220862  0.39643573     0.06900
H1914       H  0.83103284  0.24796857  0.41366172     0.08100
H1915       H  0.81692221  0.21433951  0.44126453     0.07100
H1916       H  0.97633453  0.16656370  0.37958151     0.02000
H1917       H  0.95395748  0.13304128  0.35973237     0.02500
H1918       H  0.96374175  0.12963274  0.40414017     0.06000
H1919       H  0.85784753  0.13650660  0.29395724     0.05000
H1920       H  0.84920341  0.17817370  0.31154930    -0.00800
H1921       H  0.86250668  0.14368827  0.33901006     0.00700
H1922       H  0.98068473  0.24424564  0.27310569     0.04300
H1923       H  0.00386246  0.21045402  0.25215922     0.06300
H1924       H  0.01350627  0.22112775  0.29583217     0.07100
C1925       C  0.82338537  0.04504923  0.32614781    -0.22500
C1926       C  0.84976145  0.06292335  0.34221185     0.09500
C1927       C  0.88065438  0.06798930  0.32372174     0.09900
C1928       C  0.88300228  0.05838905  0.28908353    -0.17400
C1929       C  0.85578225  0.04242225  0.27232227    -0.27800
C1930       C  0.82586726  0.03487156  0.29169812     0.18200
C1931       C  0.84377439  0.07848472  0.37701876     0.12200
C1932       C  0.91155844  0.08324449  0.34039287    -0.12200
H1933       H  0.90631444  0.06353529  0.27496144     0.12500
C1934       C  0.79615418  0.01622885  0.27634681    -0.23000
H1935       H  0.80031569  0.03959286  0.34050511     0.08100
C1936       C  0.81881005  0.10495244  0.38241202     0.04400
C1937       C  0.81838042  0.12318411  0.41342957    -0.20200
C1938       C  0.84164874  0.11550269  0.43984350    -0.12500
C1939       C  0.86591668  0.08832946  0.43485563     0.13200
C1940       C  0.86573232  0.06953294  0.40422590    -0.23000
C1941       C  0.79291415  0.11482576  0.35534600    -0.06000
H1942       H  0.80011858  0.14418381  0.41692782     0.14700
C1943       C  0.89430489  0.08019951  0.45992433    -0.16200
H1944       H  0.88432350  0.04883485  0.40093580     0.09000
H1945       H  0.78426302  0.03231211  0.25614511     0.06900
H1946       H  0.77586598  0.01085466  0.29546598     0.08100
H1947       H  0.80523075  0.99140976  0.26557439     0.07100
H1948       H  0.92270288  0.06533481  0.35949026     0.02000
H1949       H  0.90392582  0.10702872  0.35364136     0.02500
H1950       H  0.93203475  0.08896424  0.32158994     0.06000
H1951       H  0.77724917  0.13765048  0.36286866     0.05000
H1952       H  0.77497768  0.09353590  0.35117633    -0.00800
H1953       H  0.80596200  0.12079269  0.33100581     0.00700
H1954       H  0.91961604  0.08233807  0.44703763     0.04300
H1955       H  0.89193393  0.05372689  0.46949412     0.06300
H1956       H  0.89432586  0.09766528  0.48205196     0.07100
C1957       C  0.78893609  0.04287276  0.48947355    -0.22500
C1958       C  0.81179428  0.02108045  0.50703684     0.09500
C1959       C  0.83663791  0.03531776  0.52868722     0.09900
C1960       C  0.84354292  0.06983425  0.52620230    -0.17400
C1961       C  0.82197584  0.09198565  0.50768674    -0.27800
C1962       C  0.79261808  0.07858667  0.49120793     0.18200
C1963       C  0.81859602  0.98591734  0.49487131     0.12200
C1964       C  0.85832480  0.01395897  0.55243789    -0.12200
H1965       H  0.86604234  0.07953717  0.53902708     0.12500
C1966       C  0.76540262  0.10102335  0.47484842    -0.23000
H1967       H  0.76936035  0.03211059  0.47326308     0.08100
C1968       C  0.80078333  0.95724982  0.50698927     0.04400
C1969       C  0.81640359  0.92452258  0.50387793    -0.20200
C1970       C  0.85103769  0.92111714  0.49348252    -0.12500
C1971       C  0.86900533  0.95078169  0.48423259     0.13200
C1972       C  0.85091060  0.98127271  0.47984540    -0.23000
C1973       C  0.76674715  0.96154062  0.52480569    -0.06000
H1974       H  0.80273579  0.90203830  0.51204646     0.14700
C1975       C  0.90761770  0.95271369  0.48354750    -0.16200
H1976       H  0.86480795  0.00341708  0.47129210     0.09000
H1977       H  0.74021697  0.09617506  0.48711825     0.06900
H1978       H  0.76334190  0.09483060  0.44734216     0.08100
H1979       H  0.77072019  0.12864409  0.47764080     0.07100
H1980       H  0.88578050  0.01503203  0.54475814     0.02000
H1981       H  0.85027389  0.98694356  0.55302627     0.02500
H1982       H  0.85523920  0.02419602  0.57857500     0.06000
H1983       H  0.75655513  0.93654993  0.53321612     0.05000
H1984       H  0.74778754  0.97382863  0.50728695    -0.00800
H1985       H  0.76979463  0.97790026  0.54767971     0.00700
H1986       H  0.91617143  0.96196749  0.45826533     0.04300
H1987       H  0.92046792  0.92809042  0.49003486     0.06300
H1988       H  0.91600929  0.97146134  0.50292912     0.07100
C1989       C  0.13390697  0.06913615  0.59394744    -0.22500
C1990       C  0.15821939  0.07892202  0.61840091     0.09500
C1991       C  0.18184670  0.10476202  0.60930495     0.09900
C1992       C  0.17878879  0.12125562  0.57741482    -0.17400
C1993       C  0.15197382  0.11397237  0.55482757    -0.27800
C1994       C  0.12887454  0.08778366  0.56364368     0.18200
C1995       C  0.15511978  0.06567808  0.65443844     0.12200
C1996       C  0.20981578  0.11606192  0.63318595    -0.12200
H1997       H  0.19667087  0.14103494  0.57053099     0.12500
C1998       C  0.09695475  0.08069094  0.54336774    -0.23000
H1999       H  0.11679034  0.04838273  0.59966217     0.08100
C2000       C  0.12431993  0.07027930  0.67352666     0.04400
C2001       C  0.12423856  0.06386278  0.70869882    -0.20200
C2002       C  0.15277530  0.04923355  0.72545788    -0.12500
C2003       C  0.18320655  0.04277101  0.70615534     0.13200
C2004       C  0.18383991  0.05098175  0.67106100    -0.23000
C2005       C  0.09105582  0.08209814  0.65743569    -0.06000
H2006       H  0.10082624  0.06886456  0.72302355     0.14700
C2007       C  0.21518000  0.02717490  0.72197687    -0.16200
H2008       H  0.20695910  0.04574379  0.65644954     0.09000
H2009       H  0.07402825  0.08351168  0.56009754     0.06900
H2010       H  0.09788525  0.05423275  0.53344529     0.08100
H2011       H  0.09331724  0.09859458  0.52180243     0.07100
H2012       H  0.22922602  0.09520673  0.63653817     0.02000
H2013       H  0.19895923  0.12327847  0.65833917     0.02500
H2014       H  0.22352654  0.13858110  0.62304439     0.06000
H2015       H  0.07126160  0.08908962  0.67677052     0.05000
H2016       H  0.08027801  0.06135781  0.64174680    -0.00800
H2017       H  0.09555753  0.10474871  0.64132469     0.00700
H2018       H  0.23607229  0.02338857  0.70294939     0.04300
H2019       H  0.20937807  0.00178994  0.73304899     0.06300
H2020       H  0.22505959  0.04433048  0.74209460     0.07100
C2021       C  0.11683364  0.19357048  0.62098182    -0.22500
C2022       C  0.08692008  0.17575831  0.63009665     0.09500
C2023       C  0.06872735  0.15966201  0.60316031     0.09900
C2024       C  0.08159640  0.16038518  0.56940244    -0.17400
C2025       C  0.11295220  0.17554658  0.56103127    -0.27800
C2026       C  0.13051248  0.19279290  0.58745591     0.18200
C2027       C  0.07632483  0.17231918  0.66760022     0.12200
C2028       C  0.03612058  0.14052379  0.60956858    -0.12200
H2029       H  0.06781903  0.14751159  0.54940915     0.12500
C2030       C  0.16405471  0.21038035  0.58125912    -0.23000
H2031       H  0.13031947  0.20768019  0.64034700     0.08100
C2032       C  0.09859929  0.15809509  0.69302255     0.04400
C2033       C  0.08571525  0.15000318  0.72587054    -0.20200
C2034       C  0.05184262  0.15837193  0.73578765    -0.12500
C2035       C  0.03099235  0.17663883  0.71191065     0.13200
C2036       C  0.04294369  0.18227209  0.67821969    -0.23000
C2037       C  0.13635530  0.15206326  0.68635091    -0.06000
H2038       H  0.10281098  0.13837595  0.74458978     0.14700
C2039       C  0.99634132  0.19158509  0.72122334    -0.16200
H2040       H  0.02625385  0.19572274  0.66039648     0.09000
H2041       H  0.18430053  0.19887953  0.59787995     0.06900
H2042       H  0.16107398  0.23796086  0.58754657     0.08100
H2043       H  0.17278584  0.20830797  0.55441885     0.07100
H2044       H  0.01581662  0.15874475  0.61742265     0.02000
H2045       H  0.03961598  0.12112982  0.62985854     0.02500
H2046       H  0.02700821  0.12722184  0.58638976     0.06000
H2047       H  0.14881396  0.13664298  0.70687216     0.05000
H2048       H  0.14018871  0.13849893  0.66193037    -0.00800
H2049       H  0.14964583  0.17685859  0.68526132     0.00700
H2050       H  0.99621521  0.21967188  0.71693804     0.04300
H2051       H  0.98950227  0.18714465  0.74819742     0.06300
H2052       H  0.97645177  0.18023210  0.70482510     0.07100
C2053       C  0.11572504  0.21366857  0.29723466    -0.22500
C2054       C  0.09962298  0.20415258  0.32784173     0.09500
C2055       C  0.06918285  0.18489120  0.32515064     0.09900
C2056       C  0.05960597  0.17059859  0.29353493    -0.17400
C2057       C  0.07688840  0.17831784  0.26310856    -0.27800
C2058       C  0.10464840  0.20157783  0.26512319     0.18200
C2059       C  0.11630182  0.21098833  0.36219642     0.12200
C2060       C  0.04547123  0.18045277  0.35504238    -0.12200
H2061       H  0.03725782  0.15449496  0.29243739     0.12500
C2062       C  0.12242528  0.21474551  0.23369625    -0.23000
H2063       H  0.13699998  0.23103738  0.29833762     0.08100
C2064       C  0.15031766  0.19967257  0.37026883     0.04400
C2065       C  0.16039152  0.19657932  0.40483440    -0.20200
C2066       C  0.13650314  0.20172834  0.43147491    -0.12500
C2067       C  0.10941317  0.22525163  0.42281585     0.13200
C2068       C  0.09772124  0.22705974  0.38868621    -0.23000
C2069       C  0.17555805  0.18875187  0.34325838    -0.06000
H2070       H  0.18558663  0.18593836  0.41084661     0.14700
C2071       C  0.09955719  0.25487329  0.44530196    -0.16200
H2072       H  0.07488314  0.24217099  0.38261518     0.09000
H2073       H  0.13561801  0.19334480  0.22011765     0.06900
H2074       H  0.14222622  0.23383618  0.24000594     0.08100
H2075       H  0.10329687  0.22750205  0.21667331     0.07100
H2076       H  0.03195142  0.20507781  0.36056698     0.02000
H2077       H  0.05996977  0.17234034  0.37798739     0.02500
H2078       H  0.02587262  0.16096722  0.34961973     0.06000
H2079       H  0.16435940  0.16834843  0.32736949     0.05000
H2080       H  0.19988307  0.17888697  0.35468019    -0.00800
H2081       H  0.18243040  0.21091421  0.32718135     0.00700
H2082       H  0.10503829  0.27919104  0.43183606     0.04300
H2083       H  0.11518464  0.25498014  0.46889473     0.06300
H2084       H  0.07161283  0.25472815  0.45100783     0.07100
C2085       C  0.14381875  0.06011213  0.31266766    -0.22500
C2086       C  0.16740552  0.08466703  0.32301280     0.09500
C2087       C  0.18904578  0.09874470  0.29731701     0.09900
C2088       C  0.18406256  0.08990245  0.26267324    -0.17400
C2089       C  0.15677911  0.06922589  0.25245238    -0.27800
C2090       C  0.13509994  0.05597625  0.27827405     0.18200
C2091       C  0.16421162  0.09812723  0.35917779     0.12200
C2092       C  0.21781612  0.12284540  0.30463360    -0.12200
H2093       H  0.20120594  0.09994678  0.24345133     0.12500
C2094       C  0.10011487  0.04178812  0.27054306    -0.23000
H2095       H  0.12948547  0.04650157  0.33186479     0.08100
C2096       C  0.13216865  0.11093264  0.37182391     0.04400
C2097       C  0.13024188  0.12595493  0.40430035    -0.20200
C2098       C  0.15877638  0.12768083  0.42614114    -0.12500
C2099       C  0.19054035  0.11336412  0.41430093     0.13200
C2100       C  0.19257878  0.09822903  0.38152078    -0.23000
C2101       C  0.09934097  0.10907145  0.35148427    -0.06000
H2102       H  0.10581366  0.13634578  0.41295027     0.14700
C2103       C  0.22320588  0.11495212  0.43472553    -0.16200
H2104       H  0.21684472  0.08703862  0.37310044     0.09000
H2105       H  0.10200363  0.01759746  0.25646359     0.06900
H2106       H  0.08503958  0.06074829  0.25531328     0.08100
H2107       H  0.08526027  0.03660058  0.29413779     0.07100
H2108       H  0.22070996  0.12892769  0.33182276     0.02000
H2109       H  0.21331912  0.14718985  0.29055432     0.02500
H2110       H  0.24252073  0.11118541  0.29581344     0.06000
H2111       H  0.07747586  0.12112053  0.36497199     0.05000
H2112       H  0.09111379  0.08239969  0.34839033    -0.00800
H2113       H  0.10266509  0.12138973  0.32625172     0.00700
H2114       H  0.23267977  0.08858707  0.44044980     0.04300
H2115       H  0.21981657  0.12905952  0.45899225     0.06300
H2116       H  0.24309657  0.12830459  0.41967498     0.07100
C2117       C  0.03444811  0.23047750  0.51538186    -0.22500
C2118       C  0.01376512  0.21256310  0.49258313     0.09500
C2119       C  0.02913142  0.19115958  0.46797992     0.09900
C2120       C  0.06383863  0.18311558  0.47043850    -0.17400
C2121       C  0.08504776  0.19965931  0.49379465    -0.27800
C2122       C  0.07038696  0.22547208  0.51515377     0.18200
C2123       C  0.97658429  0.20979982  0.49844709     0.12200
C2124       C  0.00858629  0.17593141  0.43966382    -0.12200
H2125       H  0.07443329  0.16355757  0.45386259     0.12500
C2126       C  0.09170112  0.24878179  0.53663145    -0.23000
H2127       H  0.02257774  0.24776202  0.53369323     0.08100
C2128       C  0.96359315  0.17766267  0.50788468     0.04400
C2129       C  0.92883491  0.17185046  0.50396261    -0.20200
C2130       C  0.90567184  0.19874973  0.49660135    -0.12500
C2131       C  0.91806826  0.23132678  0.48808385     0.13200
C2132       C  0.95382795  0.23642680  0.48864365    -0.23000
C2133       C  0.98559472  0.14878960  0.52217046    -0.06000
H2134       H  0.91916793  0.14667901  0.50994298     0.14700
C2135       C  0.89452919  0.26019303  0.47694875    -0.16200
H2136       H  0.96400166  0.26072375  0.48046535     0.09000
H2137       H  0.08494607  0.24565886  0.56393928     0.06900
H2138       H  0.08628625  0.27574713  0.52911174     0.08100
H2139       H  0.11963006  0.24385268  0.53307350     0.07100
H2140       H  0.99674850  0.19710298  0.42456278     0.02000
H2141       H  0.98823389  0.15935846  0.44970900     0.02500
H2142       H  0.02477236  0.15974512  0.42266392     0.06000
H2143       H  0.97518510  0.14097043  0.54731934     0.05000
H2144       H  0.01262621  0.15605794  0.52621494    -0.00800
H2145       H  0.98512489  0.12648428  0.50470739     0.00700
H2146       H  0.89778363  0.28243675  0.49411627     0.04300
H2147       H  0.86706170  0.25304639  0.47744904     0.06300
H2148       H  0.90110137  0.26783129  0.45049298     0.07100
C2149       C  0.05300416  0.84930598  0.65671479    -0.22500
C2150       C  0.07017506  0.81783517  0.65085735     0.09500
C2151       C  0.07637251  0.79593409  0.67891137     0.09900
C2152       C  0.06821898  0.80738295  0.71189842    -0.17400
C2153       C  0.05187226  0.83944607  0.71792971    -0.27800
C2154       C  0.04328769  0.86015923  0.68954867     0.18200
C2155       C  0.08319924  0.80988015  0.61574098     0.12200
C2156       C  0.08929443  0.75952515  0.67485674    -0.12200
H2157       H  0.07381691  0.79034500  0.73309436     0.12500
C2158       C  0.02269904  0.89292180  0.69331520    -0.23000
H2159       H  0.04642585  0.86529029  0.63522578     0.08100
C2160       C  0.06257148  0.81473688  0.58639232     0.04400
C2161       C  0.07820804  0.81603255  0.55428672    -0.20200
C2162       C  0.11344836  0.80953513  0.54976648    -0.12500
C2163       C  0.13365099  0.80112057  0.57883368     0.13200
C2164       C  0.11842671  0.80202943  0.61133072    -0.23000
C2165       C  0.02426632  0.82053175  0.58791141    -0.06000
H2166       H  0.06380428  0.82605094  0.53334439     0.14700
C2167       C  0.17152483  0.79262044  0.57653378    -0.16200
H2168       H  0.13463263  0.79817347  0.63350625     0.09000
H2169       H  0.01674510  0.90488106  0.66824338     0.06900
H2170       H  0.03734749  0.91158628  0.70853011     0.08100
H2171       H  0.99793176  0.88748800  0.70609171     0.07100
H2172       H  0.11476853  0.75635914  0.68735649     0.02000
H2173       H  0.09156938  0.75151655  0.64786126     0.02500
H2174       H  0.07086922  0.74195153  0.68712252     0.06000
H2175       H  0.01823177  0.84716092  0.58015725     0.05000
H2176       H  0.01351271  0.81662576  0.61358916    -0.00800
H2177       H  0.01128842  0.80241373  0.57066231     0.00700
H2178       H  0.18616913  0.81070955  0.59241631     0.04300
H2179       H  0.18134410  0.79376075  0.55001748     0.06300
H2180       H  0.17634034  0.76632633  0.58639003     0.07100
C2181       C  0.17785463  0.89851426  0.60007049    -0.22500
C2182       C  0.14644631  0.90856288  0.61540633     0.09500
C2183       C  0.11555916  0.90305190  0.59719571     0.09900
C2184       C  0.11673914  0.88421085  0.56698695    -0.17400
C2185       C  0.14777464  0.87173059  0.55297177    -0.27800
C2186       C  0.17895086  0.88010928  0.56923355     0.18200
C2187       C  0.14629376  0.92203128  0.65124975     0.12200
C2188       C  0.08117891  0.91799087  0.60792361    -0.12200
H2189       H  0.09319040  0.88098067  0.55272246     0.12500
C2190       C  0.21360873  0.86987774  0.55496779    -0.23000
H2191       H  0.20181451  0.90474404  0.61246057     0.08100
C2192       C  0.16140493  0.90307848  0.67852102     0.04400
C2193       C  0.15987794  0.91636449  0.71179752    -0.20200
C2194       C  0.13965659  0.94544327  0.71953144    -0.12500
C2195       C  0.12073871  0.96144122  0.69306921     0.13200
C2196       C  0.12766111  0.95222513  0.65913619    -0.23000
C2197       C  0.17736868  0.86795764  0.67338508    -0.06000
H2198       H  0.17309811  0.90291484  0.73229345     0.14700
C2199       C  0.09100810  0.98550045  0.70032873    -0.16200
H2200       H  0.11634527  0.96742149  0.63889425     0.09000
H2201       H  0.22814492  0.85447102  0.57411713     0.06900
H2202       H  0.22833522  0.89319697  0.54899251     0.08100
H2203       H  0.21169456  0.85438458  0.53144244     0.07100
H2204       H  0.08017222  0.94576185  0.60220152     0.02000
H2205       H  0.07667151  0.91379986  0.63547446     0.02500
H2206       H  0.05963595  0.90655579  0.59356631     0.06000
H2207       H  0.18415528  0.85557293  0.69804744     0.05000
H2208       H  0.20138050  0.86941931  0.65831942    -0.00800
H2209       H  0.15881861  0.85126780  0.66022208     0.00700
H2210       H  0.08065543  0.99759792  0.67673201     0.04300
H2211       H  0.09855285  0.00565572  0.71806803     0.06300
H2212       H  0.07003721  0.97098787  0.71253605     0.07100
C2213       C  0.08803117  0.85567081  0.29917001    -0.22500
C2214       C  0.06880674  0.83332718  0.31917954     0.09500
C2215       C  0.03743667  0.82074452  0.30650418     0.09900
C2216       C  0.02489972  0.83300404  0.27521848    -0.17400
C2217       C  0.04510773  0.85430661  0.25503037    -0.27800
C2218       C  0.07762266  0.86450663  0.26636451     0.18200
C2219       C  0.08162935  0.82536914  0.35387140     0.12200
C2220       C  0.01915134  0.79210318  0.32406013    -0.12200
H2221       H  0.00088936  0.82357734  0.26515277     0.12500
C2222       C  0.10204435  0.88331341  0.24340050    -0.23000
H2223       H  0.11194180  0.86542357  0.30893014     0.08100
C2224       C  0.11426505  0.80980181  0.35957338     0.04400
C2225       C  0.12773673  0.80871024  0.39289550    -0.20200
C2226       C  0.10919320  0.82272291  0.42057658    -0.12500
C2227       C  0.07564834  0.83600678  0.41473443     0.13200
C2228       C  0.06240618  0.83741564  0.38160966    -0.23000
C2229       C  0.13476230  0.79421662  0.33063766    -0.06000
H2230       H  0.15321626  0.79790195  0.39730028     0.14700
C2231       C  0.05281203  0.84819342  0.44306710    -0.16200
H2232       H  0.03738998  0.84940546  0.37723641     0.09000
H2233       H  0.11074203  0.86655170  0.22219876     0.06900
H2234       H  0.12571542  0.89056818  0.25712158     0.08100
H2235       H  0.08911704  0.90643975  0.23262991     0.07100
H2236       H  0.01307612  0.79901397  0.35066888     0.02000
H2237       H  0.03612843  0.76894069  0.32423425     0.02500
H2238       H  0.99483143  0.78566437  0.31087476     0.06000
H2239       H  0.15878048  0.78151403  0.33991732     0.05000
H2240       H  0.14231536  0.81399300  0.31198762    -0.00800
H2241       H  0.11914387  0.77475127  0.31749045     0.00700
H2242       H  0.04128266  0.87361042  0.43689696     0.04300
H2243       H  0.06587489  0.84971472  0.46804416     0.06300
H2244       H  0.03220461  0.82953145  0.44559165     0.07100
C2245       C  0.12783203  0.93271279  0.39322880    -0.22500
C2246       C  0.14785957  0.92148049  0.36564017     0.09500
C2247       C  0.16860359  0.89143584  0.36943414     0.09900
C2248       C  0.16861904  0.87386666  0.40066439    -0.17400
C2249       C  0.14572346  0.88307471  0.42685078    -0.27800
C2250       C  0.12433540  0.91260867  0.42251124     0.18200
C2251       C  0.14418762  0.93935990  0.33220099     0.12200
C2252       C  0.18927657  0.87645460  0.34030226    -0.12200
H2253       H  0.18512973  0.85146115  0.40400006     0.12500
C2254       C  0.09590772  0.92279692  0.44668519    -0.23000
H2255       H  0.11278361  0.95620365  0.39098910     0.08100
C2256       C  0.11210303  0.94244643  0.31519197     0.04400
C2257       C  0.11139750  0.95317276  0.28105644    -0.20200
C2258       C  0.14183234  0.95930529  0.26284525    -0.12500
C2259       C  0.17328691  0.96019196  0.28118204     0.13200
C2260       C  0.17378966  0.95090116  0.31575528    -0.23000
C2261       C  0.07852286  0.93331156  0.33203337    -0.06000
H2262       H  0.08689320  0.95487138  0.26797264     0.14700
C2263       C  0.20644917  0.97114701  0.26496957    -0.16200
H2264       H  0.19783234  0.95110243  0.32970109     0.09000
H2265       H  0.07118710  0.92420792  0.43258752     0.06900
H2266       H  0.10077253  0.94861142  0.45714289     0.08100
H2267       H  0.09288906  0.90443897  0.46789644     0.07100
H2268       H  0.21071356  0.89342751  0.33347925     0.02000
H2269       H  0.17252058  0.87287109  0.31776707     0.02500
H2270       H  0.20076346  0.85108681  0.34700916     0.06000
H2271       H  0.05712906  0.93229659  0.31332441     0.05000
H2272       H  0.07128503  0.95291442  0.35123504    -0.00800
H2273       H  0.08060387  0.90794688  0.34462153     0.00700
H2274       H  0.22756829  0.97292161  0.28390394     0.04300
H2275       H  0.20270435  0.99681151  0.25324190     0.06300
H2276       H  0.21492160  0.95227382  0.24547245     0.07100
C2277       C  0.20378733  0.95554451  0.47852132    -0.22500
C2278       C  0.18122580  0.97839787  0.49533922     0.09500
C2279       C  0.15301387  0.96552534  0.51337725     0.09900
C2280       C  0.14435335  0.93171313  0.50894740    -0.17400
C2281       C  0.16623657  0.90818243  0.49240723    -0.27800
C2282       C  0.19739388  0.92011740  0.47823153     0.18200
C2283       C  0.18140881  0.01542569  0.48787882     0.12200
C2284       C  0.13043814  0.98729802  0.53621974    -0.12200
H2285       H  0.11940675  0.92409307  0.51778534     0.12500
C2286       C  0.22379537  0.89651216  0.46225922    -0.23000
H2287       H  0.22575787  0.96537731  0.46489221     0.08100
C2288       C  0.20336104  0.03810830  0.50468102     0.04400
C2289       C  0.19597499  0.07342816  0.50319501    -0.20200
C2290       C  0.16576121  0.08612417  0.48742870    -0.12500
C2291       C  0.14355052  0.06284802  0.47119190     0.13200
C2292       C  0.15301816  0.02834058  0.46969549    -0.23000
C2293       C  0.23314455  0.02491628  0.52568017    -0.06000
H2294       H  0.21277246  0.09110419  0.51597284     0.14700
C2295       C  0.10816764  0.07228283  0.45797559    -0.16200
H2296       H  0.13567469  0.01057959  0.45766353     0.09000
H2297       H  0.24870667  0.89913033  0.47573619     0.06900
H2298       H  0.22736090  0.90349178  0.43505986     0.08100
H2299       H  0.21646380  0.86928356  0.46375519     0.07100
H2300       H  0.10423793  0.98981786  0.52513267     0.02000
H2301       H  0.14110600  0.01302729  0.54028625     0.02500
H2302       H  0.12863179  0.97500858  0.56169171     0.06000
H2303       H  0.24737957  0.04610450  0.53769286     0.05000
H2304       H  0.25128315  0.01014469  0.50923377    -0.00800
H2305       H  0.22359333  0.00803012  0.54627430     0.00700
H2306       H  0.10670067  0.06655267  0.43032939     0.04300
H2307       H  0.10090094  0.09941837  0.46233856     0.06300
H2308       H  0.08866251  0.05661561  0.47112746     0.07100
C2309       C  0.00395074  0.79499599  0.49960986    -0.22500
C2310       C  0.00139772  0.76005584  0.49403648     0.09500
C2311       C  0.96841048  0.74563670  0.49178561     0.09900
C2312       C  0.93886904  0.76765312  0.49251896    -0.17400
C2313       C  0.94221228  0.80342819  0.49581031    -0.27800
C2314       C  0.97542218  0.81669286  0.50125110     0.18200
C2315       C  0.03482373  0.74251189  0.48656645     0.12200
C2316       C  0.96452132  0.70762054  0.48850112    -0.12200
H2317       H  0.91346055  0.75716964  0.48965218     0.12500
C2318       C  0.98286243  0.85413331  0.50473838    -0.23000
H2319       H  0.02877917  0.80586699  0.49947327     0.08100
C2320       C  0.04933358  0.74828217  0.45413106     0.04400
C2321       C  0.08237663  0.76211240  0.45202380    -0.20200
C2322       C  0.09993323  0.77236262  0.48173238    -0.12500
C2323       C  0.09203240  0.75128012  0.51017670     0.13200
C2324       C  0.05823599  0.73910232  0.51370729    -0.23000
C2325       C  0.02952877  0.74309461  0.42175777    -0.06000
H2326       H  0.09326638  0.76471224  0.42710604     0.14700
C2327       C  0.11960823  0.73605364  0.53262267    -0.16200
H2328       H  0.04969516  0.72925903  0.53805419     0.09000
H2329       H  0.99731717  0.85842047  0.52838570     0.06900
H2330       H  0.99928656  0.86316536  0.48376104     0.08100
H2331       H  0.95949119  0.87010596  0.50434344     0.07100
H2332       H  0.97627591  0.69469853  0.51099303     0.02000
H2333       H  0.97753675  0.69809375  0.46513823     0.02500
H2334       H  0.93701537  0.70057857  0.48719142     0.06000
H2335       H  0.04296893  0.72347351  0.40594181     0.05000
H2336       H  0.02819791  0.76736783  0.40714376    -0.00800
H2337       H  0.00302164  0.73449243  0.42667224     0.00700
H2338       H  0.11307726  0.73989205  0.55987844     0.04300
H2339       H  0.14511477  0.74681227  0.52664283     0.06300
H2340       H  0.12134896  0.70805108  0.52807216     0.07100
loop_ 
_geom_bond_atom_site_label_1 
_geom_bond_atom_site_label_2 
_geom_bond_distance 
_geom_bond_site_symmetry_2 
_ccdc_geom_bond_type 
C1            C2   1.456       .  A
C1            C6   1.433       .  A
C1         C2162   1.501       .  S
C2            C3   1.457       .  A
C2         C2322   1.564       .  S
C3            C4   1.431       .  A
C3         C2226   1.500       .  S
C4            C5   1.409       .  A
C4         C2249   1.505       .  S
C5            C6   1.412       .  A
C5         C2281   1.504       .  S
C6         C2185   1.512       .  S
C7            C8   1.450       .  A
C7           C12   1.456       .  A
C7         C2066   1.564       .  S
C8            C9   1.431       .  A
C8         C2098   1.529       .  S
C9           C10   1.422       .  A
C9         C2290   1.494       .  S
C10          C11   1.415       .  A
C10        C1993   1.508       .  S
C11          C12   1.439       .  A
C11        C2025   1.528       .  S
C12        C2121   1.487       .  S
C13          C14   1.398       .  A
C13          C18   1.444       .  A
C13        C1865   1.542       .  S
C14          C15   1.423       .  A
C14        C1833   1.478       .  S
C15          C16   1.418       .  A
C15        C2130   1.471       .  S
C16          C17   1.417       .  A
C16        C1897   1.510       .  S
C17          C18   1.435       .  A
C17        C1938   1.513       .  S
C18        C1961   1.487       .  S
C19          C20   1.437       .  A
C19          C24   1.420       .  A
C19        C1705   1.500       .  S
C20          C21   1.441       .  A
C20        C2313   1.493       .  S
C21          C22   1.428       .  A
C21        C1801   1.540       .  S
C22          C23   1.419       .  A
C22        C1769   1.496       .  S
C23          C24   1.409       .  A
C23        C1970   1.491       .  S
C24        C1737   1.507       .  S
C25          C26   1.407       .  A
C25          C30   1.412       .  A
C25        C1554   1.503       .  S
C26          C27   1.411       .  A
C26        C1673   1.473       .  S
C27          C28   1.415       .  A
C27        C1609   1.485       .  S
C28          C29   1.422       .  A
C28        C1577   1.501       .  S
C29          C30   1.427       .  A
C29        C1641   1.494       .  S
C30        C1513   1.486       .  S
C31          C32   1.448       .  A
C31          C36   1.437       .  A
C31        C1417   1.519       .  S
C32          C33   1.451       .  A
C32        C1458   1.571       .  S
C33          C34   1.441       .  A
C33        C1682   1.493       .  S
C34          C35   1.418       .  A
C34        C1385   1.512       .  S
C35          C36   1.429       .  A
C35        C1362   1.539       .  S
C36        C1490   1.486       .  S
C37          C38   1.423       .  A
C37          C42   1.422       .  A
C37        C1193   1.515       .  S
C38          C39   1.431       .  A
C38        C1650   1.515       .  S
C39          C40   1.433       .  A
C39        C1266   1.484       .  S
C40          C41   1.423       .  A
C40        C1289   1.539       .  S
C41          C42   1.426       .  A
C41        C1321   1.486       .  S
C42        C1234   1.493       .  S
C43          C44   1.436       .  A
C43          C48   1.467       .  A
C43        C1170   1.510       .  S
C44          C45   1.412       .  A
C44        C1129   1.519       .  S
C45          C46   1.406       .  A
C45        C1481   1.507       .  S
C46          C47   1.427       .  A
C46        C1074   1.491       .  S
C47          C48   1.460       .  A
C47        C1097   1.519       .  S
C48        C1330   1.557       .  S
C49          C50   1.409       .  A
C49          C54   1.418       .  A
C49         C946   1.491       .  S
C50          C51   1.413       .  A
C50        C1033   1.489       .  S
C51          C52   1.420       .  A
C51         C882   1.500       .  S
C52          C53   1.421       .  A
C52         C914   1.487       .  S
C53          C54   1.422       .  A
C53        C1001   1.497       .  S
C54         C978   1.494       .  S
C55          C56   1.438       .  A
C55          C60   1.449       .  A
C55         C754   1.523       .  S
C56          C57   1.428       .  A
C56        C1010   1.515       .  S
C57          C58   1.413       .  A
C57         C809   1.493       .  S
C58          C59   1.418       .  A
C58         C777   1.525       .  S
C59          C60   1.446       .  A
C59         C850   1.481       .  S
C60         C713   1.546       .  S
C61          C62   1.462       .  A
C61          C66   1.386       .  A
C61         C617   1.564       .  S
C62          C63   1.462       .  A
C62         C841   1.523       .  S
C63          C64   1.428       .  A
C63         C553   1.519       .  S
C64          C65   1.400       .  A
C64         C594   1.485       .  S
C65          C66   1.384       .  A
C65         C690   1.498       .  S
C66         C658   1.404       .  S
C67          C68   1.429       .  A
C67          C72   1.419       .  A
C67         C489   1.536       .  S
C68          C69   1.436       .  A
C68        C1042   1.481       .  S
C69          C70   1.452       .  A
C69         C425   1.526       .  S
C70          C71   1.449       .  A
C70         C466   1.565       .  S
C71          C72   1.440       .  A
C71         C681   1.505       .  S
C72         C521   1.508       .  S
O73          C81   1.273       .  A
O73         Co93   1.980       .  S
O74          C82   1.276       .  A
O74         Co94   1.930       .  S
O75          C83   1.280       .  A
O75         Co95   2.032       .  S
O76          C84   1.284       .  A
O76         Co96   2.049       .  S
O77          C83   1.285       .  A
O77         Co94   2.023   1_565  S
O78          C84   1.268       .  A
O78         Co93   2.006   1_545  S
O79          C82   1.298       .  A
O79         Co96   2.109       .  S
O80          C81   1.273       .  A
O80         Co95   2.009       .  S
C81         C342   1.474       .  S
C82         C258   1.502       .  S
C83         C170   1.514       .  S
C84         C110   1.512       .  S
O85          C98   1.278       .  A
O85         Co93   2.036   1_545  S
O86          C99   1.271       .  A
O86         Co94   2.020   1_565  S
O87         C100   1.261       .  A
O87         Co95   1.968       .  S
O88         C101   1.274       .  A
O88         Co96   1.916       .  S
O89         C101   1.291       .  A
O89         Co94   2.116       .  S
O90         C100   1.269       .  A
O90         Co93   2.027       .  S
O91          C98   1.261       .  A
O91         Co96   1.974       .  S
O92          C99   1.256       .  A
O92         Co95   1.963       .  S
Co93         O97   2.077       .  S
Co94         O97   2.025   1_545  S
Co95         O97   2.033       .  S
Co96         O97   2.018   1_545  S
C98        C2002   1.501       .  S
C99        C1138   1.480       .  S
C100       C2194   1.487       .  S
C101       C1426   1.494       .  S
O102        C110   1.282       .  A
O102       Co122   2.033       .  S
O103        C111   1.259       .  A
O103       Co123   1.992   1_655  S
O104        C112   1.295       .  A
O104       Co124   2.086       .  S
O105        C113   1.292       .  A
O105       Co125   2.091       .  S
O106        C112   1.268       .  A
O106       Co123   1.983       .  S
O107        C113   1.284       .  A
O107       Co122   1.920   1_655  S
O108        C111   1.261       .  A
O108       Co125   2.009       .  S
O109        C110   1.268       .  A
O109       Co124   2.007       .  S
C111        C314   1.479       .  S
C112        C256   1.504       .  S
C113        C371   1.484       .  S
O114        C127   1.301       .  A
O114       Co122   2.140   1_655  S
O115        C128   1.263       .  A
O115       Co123   2.009       .  S
O116        C129   1.270       .  A
O116       Co124   2.001       .  S
O117        C130   1.266       .  A
O117       Co125   1.962       .  S
O118        C130   1.290       .  A
O118       Co123   2.071   1_655  S
O119        C129   1.286       .  A
O119       Co122   2.055       .  S
O120        C127   1.258       .  A
O120       Co125   1.900       .  S
O121        C128   1.257       .  A
O121       Co124   1.969       .  S
Co122       O126   2.028       .  S
Co123       O126   2.066       .  S
Co124       O126   2.040       .  S
Co125       O126   1.999   1_655  S
C127       C1842   1.504       .  S
C128        C937   1.491       .  S
C129       C2034   1.513       .  S
C130        C498   1.513       .  S
O131        C139   1.261       .  A
O131       Co151   1.970   1_455  S
O132        C140   1.258       .  A
O132       Co152   1.961   1_655  S
O133        C141   1.251       .  A
O133       Co153   1.964       .  S
O134        C142   1.269       .  A
O134       Co154   2.061       .  S
O135        C141   1.264       .  A
O135       Co152   2.011       .  S
O136        C142   1.237       .  A
O136       Co151   1.937       .  S
O137        C140   1.266       .  A
O137       Co154   1.996       .  S
O138        C139   1.271       .  A
O138       Co153   2.000       .  S
C139        C226   1.457       .  S
C140        C402   1.452       .  S
C141        C171   1.466       .  S
C142        C286   1.474       .  S
O143        C156   1.290       .  A
O143       Co151   2.056       .  S
O144        C157   1.275       .  A
O144       Co152   2.045       .  S
O145        C158   1.248       .  A
O145       Co153   1.947       .  S
O146        C159   1.266       .  A
O146       Co154   1.996       .  S
O147        C159   1.280       .  A
O147       Co152   2.059   1_655  S
O148        C158   1.239       .  A
O148       Co151   1.928   1_455  S
O149        C156   1.262       .  A
O149       Co154   1.895       .  S
O150        C157   1.255       .  A
O150       Co153   1.945       .  S
Co151       O155   2.050   1_655  S
Co152       O155   2.068       .  S
Co153       O155   2.083       .  S
Co154       O155   2.006   1_655  S
C156       C1810   1.485       .  S
C157        C722   1.494       .  S
C158       C2217   1.447       .  S
C159        C562   1.518       .  S
O160        C168   1.276       .  A
O160       Co180   2.036       .  S
O161        C169   1.275       .  A
O161       Co181   2.037       .  S
O162        C170   1.262       .  A
O162       Co182   2.005       .  S
O163        C171   1.253       .  A
O163       Co183   1.962   1_554  S
O164        C170   1.274       .  A
O164       Co181   2.044       .  S
O165        C171   1.267       .  A
O165       Co180   2.008       .  S
O166        C169   1.258       .  A
O166       Co183   1.969       .  S
O167        C168   1.265       .  A
O167       Co182   1.984   1_554  S
C168        C229   1.490       .  S
C169        C345   1.483       .  S
O172        C185   1.248       .  A
O172       Co180   1.950       .  S
O173        C186   1.236       .  A
O173       Co181   1.922       .  S
O174        C187   1.268       .  A
O174       Co182   2.065   1_554  S
O175        C188   1.266       .  A
O175       Co183   2.049       .  S
O176        C188   1.235       .  A
O176       Co181   1.909       .  S
O177        C187   1.241       .  A
O177       Co180   1.916       .  S
O178        C185   1.280       .  A
O178       Co183   2.081   1_554  S
O179        C186   1.282       .  A
O179       Co182   2.082       .  S
Co180       O184   2.091   1_554  S
Co181       O184   2.086       .  S
Co182       O184   2.177       .  S
Co183       O184   2.174       .  S
C185        C745   1.498       .  S
C186       C1161   1.492       .  S
C187       C1298   1.488       .  S
C188        C905   1.481       .  S
O189        C197   1.294       .  A
O189       Co209   2.113       .  S
O190        C198   1.259       .  A
O190       Co210   1.981       .  S
O191        C199   1.274       .  A
O191       Co211   2.030   1_655  S
O192        C200   1.260       .  A
O192       Co212   1.980   1_455  S
O193        C199   1.260       .  A
O193       Co210   1.964       .  S
O194        C200   1.277       .  A
O194       Co209   2.040       .  S
O195        C198   1.260       .  A
O195       Co212   2.014       .  S
O196        C197   1.265       .  A
O196       Co211   1.914       .  S
C197        C228   1.482       .  S
C198        C316   1.482       .  S
C199        C284   1.476       .  S
C200        C257   1.491       .  S
O201        C214   1.263       .  A
O201       Co209   1.998       .  S
O202        C215   1.252       .  A
O202       Co210   1.956       .  S
O203        C216   1.314       .  A
O203       Co211   2.137       .  S
O204        C217   1.285       .  A
O204       Co212   2.058       .  S
O205        C217   1.259       .  A
O205       Co210   1.933       .  S
O206        C216   1.268       .  A
O206       Co209   1.924       .  S
O207        C214   1.275       .  A
O207       Co212   2.036   1_455  S
O208        C215   1.284       .  A
O208       Co211   2.056   1_655  S
Co209       O213   2.027   1_455  S
Co210       O213   2.048       .  S
Co211       O213   2.014   1_455  S
Co212       O213   2.054       .  S
C214        C786   1.497       .  S
C215       C1906   1.496       .  S
C216       C2057   1.514       .  S
C217        C626   1.492       .  S
O218        C226   1.265       .  A
O218       Co238   1.970       .  S
O219        C227   1.281       .  A
O219       Co239   2.037       .  S
O220        C228   1.274       .  A
O220       Co240   1.899       .  S
O221        C229   1.277       .  A
O221       Co241   1.994       .  S
O222        C228   1.301       .  A
O222       Co239   2.119       .  S
O223        C229   1.281       .  A
O223       Co238   2.032       .  S
O224        C227   1.270       .  A
O224       Co241   2.012   1_545  S
O225        C226   1.279       .  A
O225       Co240   1.998   1_565  S
C227        C255   1.512       .  S
O230        C243   1.252       .  A
O230       Co238   1.931       .  S
O231        C244   1.272       .  A
O231       Co239   1.930       .  S
O232        C245   1.270       .  A
O232       Co240   2.015   1_565  S
O233        C246   1.282       .  A
O233       Co241   2.037   1_545  S
O234        C246   1.265       .  A
O234       Co239   1.972       .  S
O235        C245   1.261       .  A
O235       Co238   1.982       .  S
O236        C243   1.266       .  A
O236       Co241   2.015       .  S
O237        C244   1.287       .  A
O237       Co240   2.107       .  S
Co238       O242   2.024       .  S
Co239       O242   2.010   1_545  S
Co240       O242   2.005   1_545  S
Co241       O242   2.069       .  S
C243       C1257   1.455       .  S
C244       C2089   1.502       .  S
C245       C2258   1.495       .  S
C246       C1586   1.500       .  S
O247        C255   1.282       .  A
O247       Co267   2.024   1_554  S
O248        C256   1.256       .  A
O248       Co268   1.989   1_556  S
O249        C257   1.277       .  A
O249       Co269   2.035       .  S
O250        C258   1.312       .  A
O250       Co270   2.035       .  S
O251        C257   1.276       .  A
O251       Co268   1.988       .  S
O252        C258   1.302       .  A
O252       Co267   2.000       .  S
O253        C256   1.266       .  A
O253       Co270   1.993       .  S
O254        C255   1.273       .  A
O254       Co269   2.020       .  S
O259        C272   1.254       .  A
O259       Co267   2.087       .  S
O260        C273   1.263       .  A
O260       Co268   2.011       .  S
O261        C274   1.246       .  A
O261       Co269   1.919       .  S
O262        C275   1.279       .  A
O262       Co270   2.008       .  S
O263        C275   1.267       .  A
O263       Co268   1.964   1_556  S
O264        C274   1.283       .  A
O264       Co267   2.050   1_554  S
O265        C272   1.228       .  A
O265       Co270   1.984       .  S
O266        C273   1.252       .  A
O266       Co269   1.967       .  S
Co267       O271   2.127   1_556  S
Co268       O271   2.090       .  S
Co269       O271   2.040       .  S
Co270       O271   2.041   1_556  S
C272       C1449   1.529       .  S
C273        C818   1.497       .  S
C274       C1618   1.467       .  S
C275        C969   1.474       .  S
O276        C284   1.310       .  A
O276       Co296   2.125       .  S
O277        C285   1.273       .  A
O277       Co297   2.039       .  S
O278        C286   1.278       .  A
O278       Co298   1.992   1_565  S
O279        C287   1.258       .  A
O279       Co299   1.991       .  S
O280        C286   1.272       .  A
O280       Co297   1.996       .  S
O281        C287   1.277       .  A
O281       Co296   2.057       .  S
O282        C285   1.262       .  A
O282       Co299   1.998   1_565  S
O283        C284   1.285       .  A
O283       Co298   1.905       .  S
C285        C400   1.505       .  S
C287        C313   1.512       .  S
O288        C301   1.227       .  A
O288       Co296   1.894       .  S
O289        C302   1.264       .  A
O289       Co297   1.956       .  S
O290        C303   1.254       .  A
O290       Co298   2.104       .  S
O291        C304   1.280       .  A
O291       Co299   2.052   1_565  S
O292        C304   1.262       .  A
O292       Co297   1.958       .  S
O293        C303   1.225       .  A
O293       Co296   1.955       .  S
O294        C301   1.275       .  A
O294       Co299   2.069       .  S
O295        C302   1.275       .  A
O295       Co298   2.019   1_565  S
Co296       O300   2.075   1_545  S
Co297       O300   2.064       .  S
Co298       O300   2.057   1_545  S
Co299       O300   2.124   1_545  S
C301       C1522   1.474       .  S
C302       C1778   1.468       .  S
C303       C1929   1.508       .  S
C304       C1202   1.511       .  S
O305        C313   1.273       .  A
O305       Co325   2.032       .  S
O306        C314   1.271       .  A
O306       Co326   2.031       .  S
O307        C315   1.276       .  A
O307       Co327   2.020       .  S
O308        C316   1.270       .  A
O308       Co328   1.988   1_554  S
O309        C315   1.277       .  A
O309       Co326   2.057       .  S
O310        C316   1.269       .  A
O310       Co325   2.004       .  S
O311        C314   1.260       .  A
O311       Co328   1.972       .  S
O312        C313   1.280       .  A
O312       Co327   2.019   1_554  S
C315        C373   1.526       .  S
O317        C330   1.262       .  A
O317       Co325   1.967       .  S
O318        C331   1.241       .  A
O318       Co326   1.920       .  S
O319        C332   1.271       .  A
O319       Co327   2.029   1_554  S
O320        C333   1.278       .  A
O320       Co328   2.076       .  S
O321        C333   1.247       .  A
O321       Co326   1.952       .  S
O322        C332   1.260       .  A
O322       Co325   1.962       .  S
O323        C330   1.264       .  A
O323       Co328   2.011   1_554  S
O324        C331   1.277       .  A
O324       Co327   2.066       .  S
Co325       O329   2.112   1_554  S
Co326       O329   2.101       .  S
Co327       O329   2.150       .  S
Co328       O329   2.148       .  S
C330        C649   1.473       .  S
C331       C1394   1.500       .  S
C332       C1545   1.491       .  S
C333        C530   1.494       .  S
O334        C342   1.279       .  A
O334       Co354   2.026       .  S
O335        C343   1.264       .  A
O335       Co355   2.030       .  S
O336        C344   1.260       .  A
O336       Co356   1.985   1_655  S
O337        C345   1.268       .  A
O337       Co357   1.987       .  S
O338        C344   1.274       .  A
O338       Co355   2.031       .  S
O339        C345   1.271       .  A
O339       Co354   2.012       .  S
O340        C343   1.242       .  A
O340       Co357   1.938   1_655  S
O341        C342   1.264       .  A
O341       Co356   1.970       .  S
C343        C401   1.465       .  S
C344        C374   1.484       .  S
O346        C359   1.260       .  A
O346       Co354   1.988       .  S
O347        C360   1.255       .  A
O347       Co355   1.954       .  S
O348        C361   1.272       .  A
O348       Co356   2.052       .  S
O349        C362   1.310       .  A
O349       Co357   2.122   1_655  S
O350        C362   1.268       .  A
O350       Co355   1.870       .  S
O351        C361   1.248       .  A
O351       Co354   1.943       .  S
O352        C359   1.253       .  A
O352       Co357   1.966       .  S
O353        C360   1.280       .  A
O353       Co356   2.053   1_655  S
Co354       O358   2.066       .  S
Co355       O358   1.977   1_655  S
Co356       O358   2.058       .  S
Co357       O358   2.037       .  S
C359        C873   1.455       .  S
C360       C1714   1.476       .  S
C361       C2153   1.498       .  S
C362        C434   1.473       .  S
O363        C371   1.264       .  A
O363       Co383   1.968   1_545  S
O364        C372   1.271       .  A
O364       Co384   2.004   1_565  S
O365        C373   1.281       .  A
O365       Co385   2.082       .  S
O366        C374   1.268       .  A
O366       Co386   2.034       .  S
O367        C373   1.261       .  A
O367       Co384   1.990       .  S
O368        C374   1.265       .  A
O368       Co383   1.974       .  S
O369        C372   1.277       .  A
O369       Co386   2.036       .  S
O370        C371   1.274       .  A
O370       Co385   2.034       .  S
C372        C403   1.501       .  S
O375        C388   1.268       .  A
O375       Co383   2.030       .  S
O376        C389   1.286       .  A
O376       Co384   2.106       .  S
O377        C390   1.247       .  A
O377       Co385   1.948       .  S
O378        C391   1.252       .  A
O378       Co386   1.957       .  S
O379        C391   1.265       .  A
O379       Co384   2.033   1_565  S
O380        C390   1.266       .  A
O380       Co383   2.049   1_545  S
O381        C388   1.257       .  A
O381       Co386   1.959       .  S
O382        C389   1.244       .  A
O382       Co385   1.939       .  S
Co383       O387   2.170   1_565  S
Co384       O387   2.168       .  S
Co385       O387   2.094       .  S
Co386       O387   2.114   1_565  S
C388       C1746   1.493       .  S
C389       C1353   1.513       .  S
C390       C1874   1.486       .  S
C391       C1065   1.495       .  S
O392        C400   1.277       .  A
O392       Co412   2.007   1_554  S
O393        C401   1.260       .  A
O393       Co413   2.005       .  S
O394        C402   1.276       .  A
O394       Co414   2.027       .  S
O395        C403   1.264       .  A
O395       Co415   2.002       .  S
O396        C402   1.264       .  A
O396       Co413   1.944   1_554  S
O397        C403   1.270       .  A
O397       Co412   2.019       .  S
O398        C401   1.252       .  A
O398       Co415   1.970       .  S
O399        C400   1.277       .  A
O399       Co414   2.040       .  S
O404        C417   1.289       .  A
O404       Co412   2.091       .  S
O405        C418   1.251       .  A
O405       Co413   1.986   1_554  S
O406        C419   1.246       .  A
O406       Co414   1.947       .  S
O407        C420   1.237       .  A
O407       Co415   1.894       .  S
O408        C420   1.289       .  A
O408       Co413   2.113       .  S
O409        C419   1.259       .  A
O409       Co412   2.019   1_554  S
O410        C417   1.229       .  A
O410       Co415   1.838       .  S
O411        C418   1.250       .  A
O411       Co414   1.977       .  S
Co412       O416   2.150   1_556  S
Co413       O416   2.134   1_556  S
Co414       O416   2.072       .  S
Co415       O416   1.981   1_556  S
C417       C1106   1.453       .  S
C418        C585   1.482       .  S
C419       C1225   1.462       .  S
C420        C457   1.518       .  S
C421        C422   1.412       .  A
C421        C426   1.414       .  A
C421        H431   1.083       .  S
C422        C423   1.417       .  A
C422        C427   1.512       .  S
C423        C424   1.401       .  A
C423        C428   1.510       .  S
C424        C425   1.405       .  A
C424        H429   1.074       .  S
C425        C426   1.420       .  A
C426        C430   1.506       .  S
C427        C432   1.425       .  A
C427        C436   1.414       .  A
C428        H444   1.111       .  S
C428        H445   1.108       .  S
C428        H446   1.111       .  S
C430        H441   1.110       .  S
C430        H442   1.108       .  S
C430        H443   1.109       .  S
C432        C433   1.412       .  A
C432        C437   1.507       .  S
C433        C434   1.404       .  A
C433        H438   1.085       .  S
C434        C435   1.395       .  A
C435        C436   1.401       .  A
C435        C439   1.497       .  S
C436        H440   1.083       .  S
C437        H447   1.111       .  S
C437        H448   1.110       .  S
C437        H449   1.107       .  S
C439        H450   1.094       .  S
C439        H451   1.107       .  S
C439        H452   1.109       .  S
C453        C454   1.404       .  A
C453        C458   1.410       .  A
C453        H463   1.085       .  S
C454        C455   1.407       .  A
C454        C459   1.494       .  S
C455        C456   1.408       .  A
C455        C460   1.512       .  S
C456        C457   1.427       .  A
C456        H461   1.082       .  S
C457        C458   1.421       .  A
C458        C462   1.504       .  S
C459        C464   1.413       .  A
C459        C468   1.402       .  A
C460        H476   1.110       .  S
C460        H477   1.103       .  S
C460        H478   1.111       .  S
C462        H473   1.100       .  S
C462        H474   1.110       .  S
C462        H475   1.109       .  S
C464        C465   1.411       .  A
C464        C469   1.507       .  S
C465        C466   1.407       .  A
C465        H470   1.068       .  S
C466        C467   1.424       .  A
C467        C468   1.413       .  A
C467        C471   1.502       .  S
C468        H472   1.084       .  S
C469        H479   1.108       .  S
C469        H480   1.105       .  S
C469        H481   1.103       .  S
C471        H482   1.109       .  S
C471        H483   1.110       .  S
C471        H484   1.111       .  S
C485        C486   1.416       .  A
C485        C490   1.424       .  A
C485        H495   1.083       .  S
C486        C487   1.410       .  A
C486        C491   1.522       .  S
C487        C488   1.400       .  A
C487        C492   1.502       .  S
C488        C489   1.406       .  A
C488        H493   1.071       .  S
C489        C490   1.421       .  A
C490        C494   1.503       .  S
C491        C496   1.429       .  A
C491        C500   1.406       .  A
C492        H508   1.110       .  S
C492        H509   1.108       .  S
C492        H510   1.108       .  S
C494        H505   1.108       .  S
C494        H506   1.110       .  S
C494        H507   1.109       .  S
C496        C497   1.407       .  A
C496        C501   1.505       .  S
C497        C498   1.403       .  A
C497        H502   1.084       .  S
C498        C499   1.428       .  A
C499        C500   1.416       .  A
C499        C503   1.508       .  S
C500        H504   1.083       .  S
C501        H511   1.109       .  S
C501        H512   1.101       .  S
C501        H513   1.110       .  S
C503        H514   1.111       .  S
C503        H515   1.108       .  S
C503        H516   1.110       .  S
C517        C518   1.407       .  A
C517        C522   1.411       .  A
C517        H527   1.084       .  S
C518        C519   1.421       .  A
C518        C523   1.505       .  S
C519        C520   1.407       .  A
C519        C524   1.505       .  S
C520        C521   1.403       .  A
C520        H525   1.085       .  S
C521        C522   1.416       .  A
C522        C526   1.505       .  S
C523        C528   1.415       .  A
C523        C532   1.409       .  A
C524        H540   1.105       .  S
C524        H541   1.110       .  S
C524        H542   1.111       .  S
C526        H537   1.110       .  S
C526        H538   1.107       .  S
C526        H539   1.109       .  S
C528        C529   1.412       .  A
C528        C533   1.508       .  S
C529        C530   1.408       .  A
C529        H534   1.081   1_556  S
C530        C531   1.412       .  A
C531        C532   1.414       .  A
C531        C535   1.505       .  S
C532        H536   1.084       .  S
C533        H543   1.111   1_556  S
C533        H544   1.110       .  S
C533        H545   1.107   1_556  S
C535        H546   1.111       .  S
C535        H547   1.110       .  S
C535        H548   1.109       .  S
C549        C550   1.406       .  A
C549        C554   1.415       .  A
C549        H559   1.084       .  S
C550        C551   1.418       .  A
C550        C555   1.516       .  S
C551        C552   1.416       .  A
C551        C556   1.504       .  S
C552        C553   1.407       .  A
C552        H557   1.084       .  S
C553        C554   1.423       .  A
C554        C558   1.506       .  S
C555        C560   1.410       .  A
C555        C564   1.404       .  A
C556        H572   1.106       .  S
C556        H573   1.111       .  S
C556        H574   1.111       .  S
C558        H569   1.108       .  S
C558        H570   1.110       .  S
C558        H571   1.109       .  S
C560        C561   1.414       .  A
C560        C565   1.498       .  S
C561        C562   1.408       .  A
C561        H566   1.081       .  S
C562        C563   1.428       .  A
C563        C564   1.421       .  A
C563        C567   1.503       .  S
C564        H568   1.083       .  S
C565        H575   1.109       .  S
C565        H576   1.110       .  S
C565        H577   1.105       .  S
C567        H578   1.110       .  S
C567        H579   1.104   1_655  S
C567        H580   1.106   1_655  S
C581        C582   1.399       .  A
C581        C586   1.391       .  A
C581        H591   1.083       .  S
C582        C583   1.413       .  A
C582        C587   1.482       .  S
C583        C584   1.407       .  A
C583        C588   1.508       .  S
C584        C585   1.409       .  A
C584        H589   1.084       .  S
C585        C586   1.420       .  A
C586        C590   1.512       .  S
C587        C592   1.413       .  A
C587        C596   1.407       .  A
C588        H604   1.106       .  S
C588        H605   1.111       .  S
C588        H606   1.111       .  S
C590        H601   1.111       .  S
C590        H602   1.109       .  S
C590        H603   1.110       .  S
C592        C593   1.396       .  A
C592        C597   1.511       .  S
C593        C594   1.402       .  A
C593        H598   1.083       .  S
C594        C595   1.411       .  A
C595        C596   1.401       .  A
C595        C599   1.504       .  S
C596        H600   1.083       .  S
C597        H607   1.111       .  S
C597        H608   1.106       .  S
C597        H609   1.111       .  S
C599        H610   1.110       .  S
C599        H611   1.108       .  S
C599        H612   1.110       .  S
C613        C614   1.379       .  A
C613        C618   1.472       .  A
C613        H623   1.065       .  S
C614        C615   1.383       .  A
C614        C619   1.479       .  S
C615        C616   1.392       .  A
C615        C620   1.503       .  S
C616        C617   1.422       .  A
C616        H621   1.079       .  S
C617        C618   1.562       .  A
C618        C622   2.948       .  S
C619        C624   1.403       .  A
C619        C628   1.406       .  A
C620        H636   1.109       .  S
C620        H637   1.110       .  S
C620        H638   1.109       .  S
C622        H633   1.129       .  S
C622        H634   1.128       .  S
C622        H635   1.130       .  S
C624        C625   1.401       .  A
C624        C629   1.507       .  S
C625        C626   1.415       .  A
C625        H630   1.084       .  S
C626        C627   1.414       .  A
C627        C628   1.406       .  A
C627        C631   1.506       .  S
C628        H632   1.084       .  S
C629        H639   1.111       .  S
C629        H640   1.110       .  S
C629        H641   1.109       .  S
C631        H642   1.110       .  S
C631        H643   1.106       .  S
C631        H644   1.111       .  S
C645        C646   1.408       .  A
C645        C650   1.400       .  A
C645        H655   1.072       .  S
C646        C647   1.426       .  A
C646        C651   1.501       .  S
C647        C648   1.403       .  A
C647        C652   1.506       .  S
C648        C649   1.396       .  A
C648        H653   1.084       .  S
C649        C650   1.409       .  A
C650        C654   1.508       .  S
C651        C656   1.815       .  A
C651        C660   1.769       .  A
C652        H668   1.105       .  S
C652        H669   1.106       .  S
C652        H670   1.110       .  S
C654        H665   1.110       .  S
C654        H666   1.111       .  S
C654        H667   1.106       .  S
C656        C657   1.774       .  A
C656        C661   1.494       .  S
C657        C658   1.784       .  A
C657        H662   1.081       .  S
C658        C659   1.806       .  A
C659        C660   1.764       .  A
C659        C663   1.500       .  S
C660        H664   1.073       .  S
C661        H671   1.109       .  S
C661        H672   1.107       .  S
C661        H673   1.110       .  S
C663        H674   1.109       .  S
C663        H675   1.109       .  S
C663        H676   1.105       .  S
C677        C678   1.395       .  A
C677        C682   1.391       .  A
C677        H687   1.086       .  S
C678        C679   1.410       .  A
C678        C683   1.479   1_556  S
C679        C680   1.409       .  A
C679        C684   1.504       .  S
C680        C681   1.414       .  A
C680        H685   1.082       .  S
C681        C682   1.422       .  A
C682        C686   1.502       .  S
C683        C688   1.413       .  A
C683        C692   1.407       .  A
C684        H700   1.109   1_556  S
C684        H701   1.111   1_556  S
C684        H702   1.111       .  S
C686        H697   1.111       .  S
C686        H698   1.102       .  S
C686        H699   1.108       .  S
C688        C689   1.382       .  A
C688        C693   1.513       .  S
C689        C690   1.396       .  A
C689        H694   1.074       .  S
C690        C691   1.415       .  A
C691        C692   1.412       .  A
C691        C695   1.503       .  S
C692        H696   1.083       .  S
C693        H703   1.108       .  S
C693        H704   1.111       .  S
C693        H705   1.107   1_554  S
C695        H706   1.110       .  S
C695        H707   1.109       .  S
C695        H708   1.110       .  S
C709        C710   1.403       .  A
C709        C714   1.403       .  A
C709        H719   1.083       .  S
C710        C711   1.403       .  A
C710        C715   1.479       .  S
C711        C712   1.400       .  A
C711        C716   1.504       .  S
C712        C713   1.414       .  A
C712        H717   1.068       .  S
C713        C714   1.415       .  A
C714        C718   1.499       .  S
C715        C720   1.404       .  A
C715        C724   1.406       .  A
C716        H732   1.105       .  S
C716        H733   1.110       .  S
C716        H734   1.111       .  S
C718        H729   1.110       .  S
C718        H730   1.105       .  S
C718        H731   1.110       .  S
C720        C721   1.401       .  A
C720        C725   1.508       .  S
C721        C722   1.416       .  A
C721        H726   1.083       .  S
C722        C723   1.418       .  A
C723        C724   1.408       .  A
C723        C727   1.506       .  S
C724        H728   1.084       .  S
C725        H735   1.111       .  S
C725        H736   1.108       .  S
C725        H737   1.110       .  S
C727        H738   1.111       .  S
C727        H739   1.110       .  S
C727        H740   1.108       .  S
C741        C742   1.401       .  A
C741        C746   1.416       .  A
C741        H751   1.084       .  S
C742        C743   1.408       .  A
C742        C747   1.507       .  S
C743        C744   1.406       .  A
C743        C748   1.494       .  S
C744        C745   1.402       .  A
C744        H749   1.085       .  S
C745        C746   1.429       .  A
C746        C750   1.502       .  S
C747        C752   1.416       .  A
C747        C756   1.408       .  A
C748        H764   1.097       .  S
C748        H765   1.106       .  S
C748        H766   1.110       .  S
C750        H761   1.105   1_554  S
C750        H762   1.110       .  S
C750        H763   1.103   1_554  S
C752        C753   1.404       .  A
C752        C757   1.511       .  S
C753        C754   1.407       .  A
C753        H758   1.078       .  S
C754        C755   1.428       .  A
C755        C756   1.417       .  A
C755        C759   1.509       .  S
C756        H760   1.084       .  S
C757        H767   1.111       .  S
C757        H768   1.110       .  S
C757        H769   1.105       .  S
C759        H770   1.110       .  S
C759        H771   1.108       .  S
C759        H772   1.109       .  S
C773        C774   1.403       .  A
C773        C778   1.411       .  A
C773        H783   1.085       .  S
C774        C775   1.416       .  A
C774        C779   1.504       .  S
C775        C776   1.413       .  A
C775        C780   1.505       .  S
C776        C777   1.407       .  A
C776        H781   1.084       .  S
C777        C778   1.422       .  A
C778        C782   1.501       .  S
C779        C784   1.415       .  A
C779        C788   1.403       .  A
C780        H796   1.109       .  S
C780        H797   1.110       .  S
C780        H798   1.110       .  S
C782        H793   1.108       .  S
C782        H794   1.109       .  S
C782        H795   1.102       .  S
C784        C785   1.417       .  A
C784        C789   1.504       .  S
C785        C786   1.409       .  A
C785        H790   1.084       .  S
C786        C787   1.413       .  A
C787        C788   1.409       .  A
C787        C791   1.505       .  S
C788        H792   1.080       .  S
C789        H799   1.111   1_455  S
C789        H800   1.110   1_455  S
C789        H801   1.110       .  S
C791        H802   1.109       .  S
C791        H803   1.109       .  S
C791        H804   1.110       .  S
C805        C806   1.407       .  A
C805        C810   1.404       .  A
C805        H815   1.083       .  S
C806        C807   1.418       .  A
C806        C811   1.493       .  S
C807        C808   1.400       .  A
C807        C812   1.510       .  S
C808        C809   1.402       .  A
C808        H813   1.084       .  S
C809        C810   1.411       .  A
C810        C814   1.507       .  S
C811        C816   1.416       .  A
C811        C820   1.403       .  A
C812        H828   1.108       .  S
C812        H829   1.107       .  S
C812        H830   1.111       .  S
C814        H825   1.110       .  S
C814        H826   1.098       .  S
C814        H827   1.106       .  S
C816        C817   1.403       .  A
C816        C821   1.511       .  S
C817        C818   1.408       .  A
C817        H822   1.083       .  S
C818        C819   1.424       .  A
C819        C820   1.407       .  A
C819        C823   1.511       .  S
C820        H824   1.083       .  S
C821        H831   1.111       .  S
C821        H832   1.108       .  S
C821        H833   1.109       .  S
C823        H834   1.111       .  S
C823        H835   1.108       .  S
C823        H836   1.110       .  S
C837        C838   1.390       .  A
C837        C842   1.395       .  A
C837        H847   1.088       .  S
C838        C839   1.406       .  A
C838        C843   1.474   1_655  S
C839        C840   1.408       .  A
C839        C844   1.503       .  S
C840        C841   1.413       .  A
C840        H845   1.078       .  S
C841        C842   1.435       .  A
C842        C846   1.494       .  S
C843        C848   1.410       .  A
C843        C852   1.402       .  A
C844        H860   1.110       .  S
C844        H861   1.110       .  S
C844        H862   1.111       .  S
C846        H857   1.109       .  S
C846        H858   1.108       .  S
C846        H859   1.072       .  S
C848        C849   1.407       .  A
C848        C853   1.504       .  S
C849        C850   1.407       .  A
C849        H854   1.083       .  S
C850        C851   1.418       .  A
C851        C852   1.391       .  A
C851        C855   1.506       .  S
C852        H856   1.085   1_455  S
C853        H863   1.111       .  S
C853        H864   1.110       .  S
C853        H865   1.110       .  S
C855        H866   1.111       .  S
C855        H867   1.102       .  S
C855        H868   1.110       .  S
C869        C870   1.394       .  A
C869        C874   1.393       .  A
C869        H879   1.085       .  S
C870        C871   1.411       .  A
C870        C875   1.471       .  S
C871        C872   1.397       .  A
C871        C876   1.493       .  S
C872        C873   1.393       .  A
C872        H877   1.085       .  S
C873        C874   1.406       .  A
C874        C878   1.487       .  S
C875        C880   1.405       .  A
C875        C884   1.401       .  A
C876        H892   1.110       .  S
C876        H893   1.102       .  S
C876        H894   1.110       .  S
C878        H889   1.109   1_455  S
C878        H890   1.109   1_455  S
C878        H891   1.108   1_455  S
C880        C881   1.392       .  A
C880        C885   1.511       .  S
C881        C882   1.402       .  A
C881        H886   1.076       .  S
C882        C883   1.416       .  A
C883        C884   1.407       .  A
C883        C887   1.504       .  S
C884        H888   1.084       .  S
C885        H895   1.109       .  S
C885        H896   1.109       .  S
C885        H897   1.109       .  S
C887        H898   1.110       .  S
C887        H899   1.108       .  S
C887        H900   1.110       .  S
C901        C902   1.402       .  A
C901        C906   1.399       .  A
C901        H911   1.075       .  S
C902        C903   1.440       .  A
C902        C907   1.519       .  S
C903        C904   1.406       .  A
C903        C908   1.510       .  S
C904        C905   1.392       .  A
C904        H909   1.084       .  S
C905        C906   1.421       .  A
C906        C910   1.513       .  S
C907        C912   1.436       .  A
C907        C916   1.401       .  A
C908        H924   1.108   1_556  S
C908        H925   1.102       .  S
C908        H926   1.111       .  S
C910        H921   1.111       .  S
C910        H922   1.109       .  S
C910        H923   1.110       .  S
C912        C913   1.405       .  A
C912        C917   1.511       .  S
C913        C914   1.396       .  A
C913        H918   1.085       .  S
C914        C915   1.411       .  A
C915        C916   1.400       .  A
C915        C919   1.507       .  S
C916        H920   1.076       .  S
C917        H927   1.111       .  S
C917        H928   1.108       .  S
C917        H929   1.102       .  S
C919        H930   1.099       .  S
C919        H931   1.106       .  S
C919        H932   1.111   1_556  S
C933        C934   1.405       .  A
C933        C938   1.406       .  A
C933        H943   1.080       .  S
C934        C935   1.413       .  A
C934        C939   1.495       .  S
C935        C936   1.401       .  A
C935        C940   1.507       .  S
C936        C937   1.408       .  A
C936        H941   1.084       .  S
C937        C938   1.416       .  A
C938        C942   1.506       .  S
C939        C944   1.417       .  A
C939        C948   1.409       .  A
C940        H956   1.110       .  S
C940        H957   1.109       .  S
C940        H958   1.111       .  S
C942        H953   1.110       .  S
C942        H954   1.111       .  S
C942        H955   1.108       .  S
C944        C945   1.402       .  A
C944        C949   1.505       .  S
C945        C946   1.403       .  A
C945        H950   1.084       .  S
C946        C947   1.409       .  A
C947        C948   1.401       .  A
C947        C951   1.506       .  S
C948        H952   1.083       .  S
C949        H959   1.108       .  S
C949        H960   1.110       .  S
C949        H961   1.107       .  S
C951        H962   1.109       .  S
C951        H963   1.109       .  S
C951        H964   1.110       .  S
C965        C966   1.389       .  A
C965        C970   1.391       .  A
C965        H975   1.086       .  S
C966        C967   1.417       .  A
C966        C971   1.473       .  S
C967        C968   1.407       .  A
C967        C972   1.501       .  S
C968        C969   1.399       .  A
C968        H973   1.084       .  S
C969        C970   1.422       .  A
C970        C974   1.504       .  S
C971        C976   1.407       .  A
C971        C980   1.402       .  A
C972        H988   1.108       .  S
C972        H989   1.108       .  S
C972        H990   1.110       .  S
C974        H985   1.106   1_556  S
C974        H986   1.111       .  S
C974        H987   1.103       .  S
C976        C977   1.387       .  A
C976        C981   1.510       .  S
C977        C978   1.402       .  A
C977        H982   1.074       .  S
C978        C979   1.417       .  A
C979        C980   1.409       .  A
C979        C983   1.506       .  S
C980        H984   1.084       .  S
C981        H991   1.111       .  S
C981        H992   1.110       .  S
C981        H993   1.106       .  S
C983        H994   1.110       .  S
C983        H995   1.108       .  S
C983        H996   1.110       .  S
C997        C998   1.398       .  A
C997       C1002   1.396   1_554  A
C997       H1007   1.080       .  S
C998        C999   1.412   1_554  A
C998       C1003   1.490       .  S
C999       C1000   1.414       .  A
C999       C1004   1.504       .  S
C1000      C1001   1.411       .  A
C1000      H1005   1.083       .  S
C1001      C1002   1.419       .  A
C1002      C1006   1.512       .  S
C1003      C1008   1.405       .  A
C1003      C1012   1.404       .  A
C1004      H1020   1.110   1_556  S
C1004      H1021   1.108   1_556  S
C1004      H1022   1.111       .  S
C1006      H1017   1.104   1_556  S
C1006      H1018   1.110       .  S
C1006      H1019   1.104       .  S
C1008      C1009   1.394       .  A
C1008      C1013   1.500       .  S
C1009      C1010   1.406       .  A
C1009      H1014   1.078       .  S
C1010      C1011   1.427       .  A
C1011      C1012   1.413       .  A
C1011      C1015   1.504       .  S
C1012      H1016   1.084       .  S
C1013      H1023   1.111       .  S
C1013      H1024   1.100       .  S
C1013      H1025   1.109       .  S
C1015      H1026   1.109       .  S
C1015      H1027   1.108       .  S
C1015      H1028   1.110       .  S
C1029      C1030   1.403       .  A
C1029      C1034   1.388       .  A
C1029      H1039   1.085       .  S
C1030      C1031   1.416       .  A
C1030      C1035   1.490   1_455  S
C1031      C1032   1.410       .  A
C1031      C1036   1.504       .  S
C1032      C1033   1.408       .  A
C1032      H1037   1.083       .  S
C1033      C1034   1.411       .  A
C1034      C1038   1.512       .  S
C1035      C1040   1.417       .  A
C1035      C1044   1.411       .  A
C1036      H1052   1.109       .  S
C1036      H1053   1.110       .  S
C1036      H1054   1.111       .  S
C1038      H1049   1.105       .  S
C1038      H1050   1.108       .  S
C1038      H1051   1.105       .  S
C1040      C1041   1.375       .  A
C1040      C1045   1.509       .  S
C1041      C1042   1.390       .  A
C1041      H1046   1.085       .  S
C1042      C1043   1.413       .  A
C1043      C1044   1.413       .  A
C1043      C1047   1.501       .  S
C1044      H1048   1.081       .  S
C1045      H1055   1.107       .  S
C1045      H1056   1.110       .  S
C1045      H1057   1.108   1_655  S
C1047      H1058   1.109       .  S
C1047      H1059   1.110       .  S
C1047      H1060   1.109       .  S
C1061      C1062   1.409       .  A
C1061      C1066   1.408       .  A
C1061      H1071   1.084       .  S
C1062      C1063   1.406       .  A
C1062      C1067   1.492       .  S
C1063      C1064   1.403       .  A
C1063      C1068   1.507       .  S
C1064      C1065   1.410       .  A
C1064      H1069   1.081       .  S
C1065      C1066   1.418       .  A
C1066      C1070   1.507       .  S
C1067      C1072   1.427       .  A
C1067      C1076   1.405       .  A
C1068      H1084   1.110       .  S
C1068      H1085   1.102       .  S
C1068      H1086   1.107       .  S
C1070      H1081   1.111       .  S
C1070      H1082   1.110       .  S
C1070      H1083   1.108       .  S
C1072      C1073   1.396       .  A
C1072      C1077   1.511       .  S
C1073      C1074   1.395       .  A
C1073      H1078   1.085       .  S
C1074      C1075   1.416       .  A
C1075      C1076   1.402       .  A
C1075      C1079   1.512       .  S
C1076      H1080   1.085       .  S
C1077      H1087   1.110       .  S
C1077      H1088   1.110       .  S
C1077      H1089   1.105       .  S
C1079      H1090   1.107       .  S
C1079      H1091   1.106       .  S
C1079      H1092   1.097       .  S
C1093      C1094   1.396       .  A
C1093      C1098   1.399       .  A
C1093      H1103   1.083       .  S
C1094      C1095   1.411       .  A
C1094      C1099   1.492       .  S
C1095      C1096   1.420       .  A
C1095      C1100   1.504       .  S
C1096      C1097   1.415       .  A
C1096      H1101   1.083       .  S
C1097      C1098   1.420       .  A
C1098      C1102   1.496       .  S
C1099      C1104   1.413       .  A
C1099      C1108   1.400       .  A
C1100      H1116   1.111       .  S
C1100      H1117   1.107       .  S
C1100      H1118   1.110       .  S
C1102      H1113   1.106       .  S
C1102      H1114   1.106       .  S
C1102      H1115   1.105       .  S
C1104      C1105   1.395       .  A
C1104      C1109   1.484       .  S
C1105      C1106   1.388       .  A
C1105      H1110   1.085       .  S
C1106      C1107   1.424       .  A
C1107      C1108   1.402       .  A
C1107      C1111   1.514       .  S
C1108      H1112   1.084       .  S
C1109      H1119   1.111       .  S
C1109      H1120   1.097       .  S
C1109      H1121   1.106       .  S
C1111      H1122   1.109       .  S
C1111      H1123   1.103       .  S
C1111      H1124   1.109       .  S
C1125      C1126   1.414       .  A
C1125      C1130   1.409       .  A
C1125      H1135   1.084       .  S
C1126      C1127   1.426       .  A
C1126      C1131   1.512       .  S
C1127      C1128   1.402       .  A
C1127      C1132   1.510       .  S
C1128      C1129   1.406       .  A
C1128      H1133   1.081       .  S
C1129      C1130   1.415       .  A
C1130      C1134   1.506       .  S
C1131      C1136   1.424       .  A
C1131      C1140   1.411       .  A
C1132      H1148   1.104       .  S
C1132      H1149   1.098       .  S
C1132      H1150   1.110       .  S
C1134      H1145   1.110       .  S
C1134      H1146   1.110       .  S
C1134      H1147   1.108       .  S
C1136      C1137   1.405       .  A
C1136      C1141   1.502       .  S
C1137      C1138   1.399       .  A
C1137      H1142   1.085       .  S
C1138      C1139   1.414       .  A
C1139      C1140   1.402       .  A
C1139      C1143   1.510       .  S
C1140      H1144   1.083       .  S
C1141      H1151   1.103   1_565  S
C1141      H1152   1.099       .  S
C1141      H1153   1.110       .  S
C1143      H1154   1.109       .  S
C1143      H1155   1.111       .  S
C1143      H1156   1.111       .  S
C1157      C1158   1.398       .  A
C1157      C1162   1.411       .  A
C1157      H1167   1.084       .  S
C1158      C1159   1.414       .  A
C1158      C1163   1.505       .  S
C1159      C1160   1.403       .  A
C1159      C1164   1.481       .  S
C1160      C1161   1.389       .  A
C1160      H1165   1.086       .  S
C1161      C1162   1.435       .  A
C1162      C1166   1.506       .  S
C1163      C1168   1.419       .  A
C1163      C1172   1.408       .  A
C1164      H1180   1.101       .  S
C1164      H1181   1.098       .  S
C1164      H1182   1.110       .  S
C1166      H1177   1.109   1_556  S
C1166      H1178   1.111       .  S
C1166      H1179   1.094       .  S
C1168      C1169   1.405       .  A
C1168      C1173   1.508       .  S
C1169      C1170   1.400       .  A
C1169      H1174   1.074       .  S
C1170      C1171   1.422       .  A
C1171      C1172   1.411       .  A
C1171      C1175   1.505       .  S
C1172      H1176   1.084       .  S
C1173      H1183   1.110       .  S
C1173      H1184   1.108       .  S
C1173      H1185   1.106       .  S
C1175      H1186   1.110       .  S
C1175      H1187   1.109       .  S
C1175      H1188   1.110       .  S
C1189      C1190   1.408       .  A
C1189      C1194   1.410       .  A
C1189      H1199   1.085       .  S
C1190      C1191   1.424       .  A
C1190      C1195   1.511       .  S
C1191      C1192   1.408       .  A
C1191      C1196   1.509       .  S
C1192      C1193   1.405       .  A
C1192      H1197   1.084       .  S
C1193      C1194   1.417       .  A
C1194      C1198   1.501       .  S
C1195      C1200   1.423       .  A
C1195      C1204   1.405       .  A
C1196      H1212   1.110       .  S
C1196      H1213   1.104       .  S
C1196      H1214   1.109       .  S
C1198      H1209   1.109       .  S
C1198      H1210   1.091       .  S
C1198      H1211   1.102       .  S
C1200      C1201   1.410       .  A
C1200      C1205   1.509       .  S
C1201      C1202   1.408       .  A
C1201      H1206   1.084       .  S
C1202      C1203   1.427       .  A
C1203      C1204   1.411       .  A
C1203      C1207   1.510       .  S
C1204      H1208   1.084       .  S
C1205      H1215   1.111       .  S
C1205      H1216   1.110       .  S
C1205      H1217   1.105       .  S
C1207      H1218   1.111       .  S
C1207      H1219   1.108       .  S
C1207      H1220   1.110       .  S
C1221      C1222   1.399       .  A
C1221      C1226   1.400       .  A
C1221      H1231   1.079       .  S
C1222      C1223   1.406       .  A
C1222      C1227   1.469       .  S
C1223      C1224   1.398       .  A
C1223      C1228   1.501   1_554  S
C1224      C1225   1.396       .  A
C1224      H1229   1.078   1_554  S
C1225      C1226   1.410       .  A
C1226      C1230   1.505       .  S
C1227      C1232   1.410       .  A
C1227      C1236   1.389       .  A
C1228      H1244   1.108       .  S
C1228      H1245   1.110   1_556  S
C1228      H1246   1.101       .  S
C1230      H1241   1.111       .  S
C1230      H1242   1.110       .  S
C1230      H1243   1.110       .  S
C1232      C1233   1.405       .  A
C1232      C1237   1.504       .  S
C1233      C1234   1.404       .  A
C1233      H1238   1.084       .  S
C1234      C1235   1.421       .  A
C1235      C1236   1.386       .  A
C1235      C1239   1.500       .  S
C1236      H1240   1.086       .  S
C1237      H1247   1.111       .  S
C1237      H1248   1.109       .  S
C1237      H1249   1.110       .  S
C1239      H1250   1.107       .  S
C1239      H1251   1.096       .  S
C1239      H1252   1.107       .  S
C1253      C1254   1.402       .  A
C1253      C1258   1.398       .  A
C1253      H1263   1.083       .  S
C1254      C1255   1.417       .  A
C1254      C1259   1.477       .  S
C1255      C1256   1.394       .  A
C1255      C1260   1.504       .  S
C1256      C1257   1.391       .  A
C1256      H1261   1.083       .  S
C1257      C1258   1.411       .  A
C1258      C1262   1.507       .  S
C1259      C1264   1.418       .  A
C1259      C1268   1.393       .  A
C1260      H1276   1.103       .  S
C1260      H1277   1.108       .  S
C1260      H1278   1.100       .  S
C1262      H1273   1.111       .  S
C1262      H1274   1.111       .  S
C1262      H1275   1.109       .  S
C1264      C1265   1.405       .  A
C1264      C1269   1.507       .  S
C1265      C1266   1.403       .  A
C1265      H1270   1.083       .  S
C1266      C1267   1.413       .  A
C1267      C1268   1.378       .  A
C1267      C1271   1.506       .  S
C1268      H1272   1.074       .  S
C1269      H1279   1.111       .  S
C1269      H1280   1.107       .  S
C1269      H1281   1.111       .  S
C1271      H1282   1.110       .  S
C1271      H1283   1.099       .  S
C1271      H1284   1.111       .  S
C1285      C1286   1.406       .  A
C1285      C1290   1.412       .  A
C1285      H1295   1.081       .  S
C1286      C1287   1.407       .  A
C1286      C1291   1.504       .  S
C1287      C1288   1.404       .  A
C1287      C1292   1.504       .  S
C1288      C1289   1.415       .  A
C1288      H1293   1.067       .  S
C1289      C1290   1.423       .  A
C1290      C1294   1.505       .  S
C1291      C1296   1.411       .  A
C1291      C1300   1.412       .  A
C1292      H1308   1.103       .  S
C1292      H1309   1.110       .  S
C1292      H1310   1.110       .  S
C1294      H1305   1.107       .  S
C1294      H1306   1.110       .  S
C1294      H1307   1.110       .  S
C1296      C1297   1.406       .  A
C1296      C1301   1.507       .  S
C1297      C1298   1.412       .  A
C1297      H1302   1.084       .  S
C1298      C1299   1.412       .  A
C1299      C1300   1.407       .  A
C1299      C1303   1.507       .  S
C1300      H1304   1.080       .  S
C1301      H1311   1.111       .  S
C1301      H1312   1.107       .  S
C1301      H1313   1.110       .  S
C1303      H1314   1.111       .  S
C1303      H1315   1.104       .  S
C1303      H1316   1.111   1_554  S
C1317      C1318   1.409       .  A
C1317      C1322   1.416       .  A
C1317      H1327   1.084       .  S
C1318      C1319   1.411       .  A
C1318      C1323   1.478   1_554  S
C1319      C1320   1.380       .  A
C1319      C1324   1.502   1_554  S
C1320      C1321   1.393       .  A
C1320      H1325   1.074       .  S
C1321      C1322   1.414       .  A
C1322      C1326   1.502       .  S
C1323      C1328   1.405       .  A
C1323      C1332   1.401       .  A
C1324      H1340   1.100       .  S
C1324      H1341   1.106       .  S
C1324      H1342   1.110       .  S
C1326      H1337   1.110       .  S
C1326      H1338   1.110       .  S
C1326      H1339   1.109       .  S
C1328      C1329   1.401       .  A
C1328      C1333   1.504       .  S
C1329      C1330   1.417       .  A
C1329      H1334   1.067       .  S
C1330      C1331   1.421       .  A
C1331      C1332   1.409       .  A
C1331      C1335   1.500       .  S
C1332      H1336   1.083       .  S
C1333      H1343   1.110       .  S
C1333      H1344   1.110       .  S
C1333      H1345   1.106       .  S
C1335      H1346   1.110       .  S
C1335      H1347   1.109       .  S
C1335      H1348   1.108       .  S
C1349      C1350   1.410       .  A
C1349      C1354   1.416       .  A
C1349      H1359   1.084       .  S
C1350      C1351   1.410       .  A
C1350      C1355   1.512       .  S
C1351      C1352   1.416       .  A
C1351      C1356   1.504       .  S
C1352      C1353   1.416       .  A
C1352      H1357   1.082       .  S
C1353      C1354   1.409       .  A
C1354      C1358   1.495       .  S
C1355      C1360   1.407       .  A
C1355      C1364   1.412       .  A
C1356      H1372   1.109       .  S
C1356      H1373   1.109       .  S
C1356      H1374   1.110       .  S
C1358      H1369   1.106       .  S
C1358      H1370   1.110       .  S
C1358      H1371   1.108       .  S
C1360      C1361   1.404       .  A
C1360      C1365   1.507       .  S
C1361      C1362   1.415       .  A
C1361      H1366   1.079       .  S
C1362      C1363   1.421       .  A
C1363      C1364   1.424       .  A
C1363      C1367   1.505       .  S
C1364      H1368   1.083       .  S
C1365      H1375   1.111       .  S
C1365      H1376   1.110       .  S
C1365      H1377   1.099       .  S
C1367      H1378   1.110       .  S
C1367      H1379   1.108       .  S
C1367      H1380   1.110       .  S
C1381      C1382   1.410       .  A
C1381      C1386   1.404       .  A
C1381      H1391   1.084       .  S
C1382      C1383   1.414       .  A
C1382      C1387   1.506       .  S
C1383      C1384   1.406       .  A
C1383      C1388   1.500       .  S
C1384      C1385   1.407       .  A
C1384      H1389   1.079       .  S
C1385      C1386   1.416       .  A
C1386      C1390   1.505       .  S
C1387      C1392   1.426       .  A
C1387      C1396   1.399       .  A
C1388      H1404   1.106       .  S
C1388      H1405   1.109       .  S
C1388      H1406   1.110       .  S
C1390      H1401   1.109       .  S
C1390      H1402   1.110       .  S
C1390      H1403   1.109       .  S
C1392      C1393   1.410       .  A
C1392      C1397   1.502       .  S
C1393      C1394   1.402       .  A
C1393      H1398   1.084       .  S
C1394      C1395   1.429       .  A
C1395      C1396   1.400       .  A
C1395      C1399   1.513       .  S
C1396      H1400   1.084       .  S
C1397      H1407   1.109       .  S
C1397      H1408   1.104       .  S
C1397      H1409   1.107       .  S
C1399      H1410   1.110       .  S
C1399      H1411   1.110       .  S
C1399      H1412   1.111       .  S
C1413      C1414   1.403       .  A
C1413      C1418   1.406       .  A
C1413      H1423   1.080       .  S
C1414      C1415   1.419       .  A
C1414      C1419   1.506       .  S
C1415      C1416   1.414       .  A
C1415      C1420   1.506       .  S
C1416      C1417   1.409       .  A
C1416      H1421   1.082       .  S
C1417      C1418   1.418       .  A
C1418      C1422   1.504       .  S
C1419      C1424   1.416       .  A
C1419      C1428   1.403       .  A
C1420      H1436   1.107       .  S
C1420      H1437   1.110       .  S
C1420      H1438   1.110       .  S
C1422      H1433   1.109       .  S
C1422      H1434   1.109       .  S
C1422      H1435   1.107       .  S
C1424      C1425   1.418       .  A
C1424      C1429   1.507       .  S
C1425      C1426   1.412       .  A
C1425      H1430   1.084       .  S
C1426      C1427   1.405       .  A
C1427      C1428   1.407       .  A
C1427      C1431   1.500       .  S
C1428      H1432   1.077       .  S
C1429      H1439   1.111       .  S
C1429      H1440   1.109       .  S
C1429      H1441   1.108       .  S
C1431      H1442   1.101       .  S
C1431      H1443   1.110       .  S
C1431      H1444   1.110       .  S
C1445      C1446   1.397       .  A
C1445      C1450   1.413       .  A
C1445      H1455   1.084       .  S
C1446      C1447   1.421       .  A
C1446      C1451   1.515       .  S
C1447      C1448   1.421       .  A
C1447      C1452   1.502       .  S
C1448      C1449   1.410       .  A
C1448      H1453   1.083       .  S
C1449      C1450   1.429       .  A
C1450      C1454   1.493       .  S
C1451      C1456   1.425       .  A
C1451      C1460   1.404       .  A
C1452      H1468   1.104       .  S
C1452      H1469   1.106       .  S
C1452      H1470   1.111       .  S
C1454      H1465   1.110       .  S
C1454      H1466   1.111       .  S
C1454      H1467   1.089       .  S
C1456      C1457   1.418       .  A
C1456      C1461   1.505       .  S
C1457      C1458   1.410       .  A
C1457      H1462   1.078       .  S
C1458      C1459   1.426       .  A
C1459      C1460   1.414       .  A
C1459      C1463   1.505       .  S
C1460      H1464   1.084       .  S
C1461      H1471   1.107       .  S
C1461      H1472   1.110       .  S
C1461      H1473   1.104       .  S
C1463      H1474   1.111       .  S
C1463      H1475   1.109       .  S
C1463      H1476   1.109       .  S
C1477      C1478   1.403       .  A
C1477      C1482   1.414       .  A
C1477      H1487   1.083       .  S
C1478      C1479   1.407       .  A
C1478      C1483   1.479   1_565  S
C1479      C1480   1.382       .  A
C1479      C1484   1.504   1_565  S
C1480      C1481   1.398       .  A
C1480      H1485   1.078       .  S
C1481      C1482   1.423       .  A
C1482      C1486   1.503       .  S
C1483      C1488   1.405       .  A
C1483      C1492   1.407       .  A
C1484      H1500   1.109       .  S
C1484      H1501   1.110       .  S
C1484      H1502   1.102   1_545  S
C1486      H1497   1.110       .  S
C1486      H1498   1.110       .  S
C1486      H1499   1.109       .  S
C1488      C1489   1.375       .  A
C1488      C1493   1.498       .  S
C1489      C1490   1.390       .  A
C1489      H1494   1.081       .  S
C1490      C1491   1.419       .  A
C1491      C1492   1.416       .  A
C1491      C1495   1.501       .  S
C1492      H1496   1.083       .  S
C1493      H1503   1.102       .  S
C1493      H1504   1.107   1_545  S
C1493      H1505   1.109       .  S
C1495      H1506   1.110       .  S
C1495      H1507   1.109       .  S
C1495      H1508   1.110       .  S
C1509      C1510   1.402       .  A
C1509      C1514   1.408       .  A
C1509      H1519   1.084       .  S
C1510      C1511   1.405       .  A
C1510      C1515   1.462       .  S
C1511      C1512   1.378       .  A
C1511      C1516   1.516       .  S
C1512      C1513   1.398       .  A
C1512      H1517   1.065       .  S
C1513      C1514   1.415       .  A
C1514      C1518   1.505       .  S
C1515      C1520   1.408       .  A
C1515      C1524   1.383       .  A
C1516      H1532   1.109       .  S
C1516      H1533   1.105       .  S
C1516      H1534   1.111       .  S
C1518      H1529   1.110       .  S
C1518      H1530   1.110       .  S
C1518      H1531   1.109       .  S
C1520      C1521   1.404       .  A
C1520      C1525   1.498       .  S
C1521      C1522   1.402       .  A
C1521      H1526   1.082       .  S
C1522      C1523   1.431       .  A
C1523      C1524   1.389       .  A
C1523      C1527   1.501       .  S
C1524      H1528   1.086       .  S
C1525      H1535   1.111       .  S
C1525      H1536   1.110       .  S
C1525      H1537   1.102       .  S
C1527      H1538   1.109       .  S
C1527      H1539   1.092       .  S
C1527      H1540   1.109   1_545  S
C1541      C1542   1.404       .  A
C1541      C1546   1.398       .  A
C1541      H1551   1.078       .  S
C1542      C1543   1.414       .  A
C1542      C1547   1.496       .  S
C1543      C1544   1.407       .  A
C1543      C1548   1.509       .  S
C1544      C1545   1.410       .  A
C1544      H1549   1.082       .  S
C1545      C1546   1.415       .  A
C1546      C1550   1.507       .  S
C1547      C1552   1.417       .  A
C1547      C1556   1.412       .  A
C1548      H1564   1.106       .  S
C1548      H1565   1.110       .  S
C1548      H1566   1.111       .  S
C1550      H1561   1.111       .  S
C1550      H1562   1.106       .  S
C1550      H1563   1.110       .  S
C1552      C1553   1.394       .  A
C1552      C1557   1.508       .  S
C1553      C1554   1.403       .  A
C1553      H1558   1.083       .  S
C1554      C1555   1.408       .  A
C1555      C1556   1.407       .  A
C1555      C1559   1.504       .  S
C1556      H1560   1.083       .  S
C1557      H1567   1.106       .  S
C1557      H1568   1.110       .  S
C1557      H1569   1.104       .  S
C1559      H1570   1.110       .  S
C1559      H1571   1.108       .  S
C1559      H1572   1.110       .  S
C1573      C1574   1.402       .  A
C1573      C1578   1.400       .  A
C1573      H1583   1.079       .  S
C1574      C1575   1.424       .  A
C1574      C1579   1.509       .  S
C1575      C1576   1.411       .  A
C1575      C1580   1.509       .  S
C1576      C1577   1.401       .  A
C1576      H1581   1.083       .  S
C1577      C1578   1.419       .  A
C1578      C1582   1.505       .  S
C1579      C1584   1.422       .  A
C1579      C1588   1.403       .  A
C1580      H1596   1.108       .  S
C1580      H1597   1.108       .  S
C1580      H1598   1.111       .  S
C1582      H1593   1.110       .  S
C1582      H1594   1.109       .  S
C1582      H1595   1.103       .  S
C1584      C1585   1.405       .  A
C1584      C1589   1.505       .  S
C1585      C1586   1.401       .  A
C1585      H1590   1.083       .  S
C1586      C1587   1.424       .  A
C1587      C1588   1.410       .  A
C1587      C1591   1.506       .  S
C1588      H1592   1.082       .  S
C1589      H1599   1.110       .  S
C1589      H1600   1.105       .  S
C1589      H1601   1.101       .  S
C1591      H1602   1.106   1_545  S
C1591      H1603   1.109       .  S
C1591      H1604   1.111   1_545  S
C1605      C1606   1.402       .  A
C1605      C1610   1.402       .  A
C1605      H1615   1.083       .  S
C1606      C1607   1.414       .  A
C1606      C1611   1.473       .  S
C1607      C1608   1.390       .  A
C1607      C1612   1.514       .  S
C1608      C1609   1.399       .  A
C1608      H1613   1.076       .  S
C1609      C1610   1.413       .  A
C1610      C1614   1.506       .  S
C1611      C1616   1.410       .  A
C1611      C1620   1.388       .  A
C1612      H1628   1.108       .  S
C1612      H1629   1.105       .  S
C1612      H1630   1.111       .  S
C1614      H1625   1.110       .  S
C1614      H1626   1.110       .  S
C1614      H1627   1.109       .  S
C1616      C1617   1.405       .  A
C1616      C1621   1.504       .  S
C1617      C1618   1.403       .  A
C1617      H1622   1.084       .  S
C1618      C1619   1.428       .  A
C1619      C1620   1.390       .  A
C1619      C1623   1.506       .  S
C1620      H1624   1.085       .  S
C1621      H1631   1.110       .  S
C1621      H1632   1.109       .  S
C1621      H1633   1.104       .  S
C1623      H1634   1.111       .  S
C1623      H1635   1.095       .  S
C1623      H1636   1.109   1_554  S
C1637      C1638   1.395   1_545  A
C1637      C1642   1.393       .  A
C1637      H1647   1.081   1_545  S
C1638      C1639   1.414   1_565  A
C1638      C1643   1.487       .  S
C1639      C1640   1.415       .  A
C1639      C1644   1.503       .  S
C1640      C1641   1.411       .  A
C1640      H1645   1.083       .  S
C1641      C1642   1.413       .  A
C1642      C1646   1.505       .  S
C1643      C1648   1.412       .  A
C1643      C1652   1.408       .  A
C1644      H1660   1.110       .  S
C1644      H1661   1.109   1_545  S
C1644      H1662   1.111       .  S
C1646      H1657   1.105       .  S
C1646      H1658   1.111       .  S
C1646      H1659   1.102       .  S
C1648      C1649   1.390       .  A
C1648      C1653   1.506       .  S
C1649      C1650   1.405       .  A
C1649      H1654   1.077       .  S
C1650      C1651   1.422       .  A
C1651      C1652   1.414       .  A
C1651      C1655   1.505       .  S
C1652      H1656   1.084       .  S
C1653      H1663   1.111       .  S
C1653      H1664   1.103   1_565  S
C1653      H1665   1.108       .  S
C1655      H1666   1.110       .  S
C1655      H1667   1.109       .  S
C1655      H1668   1.110       .  S
C1669      C1670   1.406       .  A
C1669      C1674   1.407       .  A
C1669      H1679   1.084       .  S
C1670      C1671   1.416       .  A
C1670      C1675   1.468   1_554  S
C1671      C1672   1.375       .  A
C1671      C1676   1.510       .  S
C1672      C1673   1.392       .  A
C1672      H1677   1.084       .  S
C1673      C1674   1.410       .  A
C1674      C1678   1.503       .  S
C1675      C1680   1.402       .  A
C1675      C1684   1.402       .  A
C1676      H1692   1.110       .  S
C1676      H1693   1.106       .  S
C1676      H1694   1.101   1_554  S
C1678      H1689   1.110       .  S
C1678      H1690   1.110       .  S
C1678      H1691   1.109       .  S
C1680      C1681   1.380       .  A
C1680      C1685   1.505       .  S
C1681      C1682   1.402       .  A
C1681      H1686   1.075       .  S
C1682      C1683   1.425       .  A
C1683      C1684   1.408       .  A
C1683      C1687   1.504       .  S
C1684      H1688   1.084       .  S
C1685      H1695   1.110       .  S
C1685      H1696   1.107       .  S
C1685      H1697   1.108   1_556  S
C1687      H1698   1.110       .  S
C1687      H1699   1.109       .  S
C1687      H1700   1.110       .  S
C1701      C1702   1.392       .  A
C1701      C1706   1.393       .  A
C1701      H1711   1.086       .  S
C1702      C1703   1.408       .  A
C1702      C1707   1.476       .  S
C1703      C1704   1.408       .  A
C1703      C1708   1.503       .  S
C1704      C1705   1.407       .  A
C1704      H1709   1.084       .  S
C1705      C1706   1.429       .  A
C1706      C1710   1.509       .  S
C1707      C1712   1.410       .  A
C1707      C1716   1.403       .  A
C1708      H1724   1.110       .  S
C1708      H1725   1.110       .  S
C1708      H1726   1.111       .  S
C1710      H1721   1.106       .  S
C1710      H1722   1.100       .  S
C1710      H1723   1.108       .  S
C1712      C1713   1.402       .  A
C1712      C1717   1.504       .  S
C1713      C1714   1.403       .  A
C1713      H1718   1.083       .  S
C1714      C1715   1.411       .  A
C1715      C1716   1.404       .  A
C1715      C1719   1.506       .  S
C1716      H1720   1.084       .  S
C1717      H1727   1.104   1_655  S
C1717      H1728   1.109       .  S
C1717      H1729   1.110       .  S
C1719      H1730   1.111       .  S
C1719      H1731   1.103       .  S
C1719      H1732   1.110       .  S
C1733      C1734   1.405       .  A
C1733      C1738   1.410       .  A
C1733      H1743   1.084       .  S
C1734      C1735   1.408       .  A
C1734      C1739   1.484       .  S
C1735      C1736   1.396       .  A
C1735      C1740   1.508       .  S
C1736      C1737   1.403       .  A
C1736      H1741   1.080       .  S
C1737      C1738   1.418       .  A
C1738      C1742   1.505       .  S
C1739      C1744   1.408       .  A
C1739      C1748   1.400       .  A
C1740      H1756   1.107       .  S
C1740      H1757   1.110       .  S
C1740      H1758   1.108       .  S
C1742      H1753   1.110       .  S
C1742      H1754   1.110       .  S
C1742      H1755   1.109       .  S
C1744      C1745   1.406       .  A
C1744      C1749   1.506       .  S
C1745      C1746   1.412       .  A
C1745      H1750   1.084       .  S
C1746      C1747   1.421       .  A
C1747      C1748   1.402       .  A
C1747      C1751   1.509       .  S
C1748      H1752   1.085       .  S
C1749      H1759   1.111       .  S
C1749      H1760   1.110       .  S
C1749      H1761   1.111       .  S
C1751      H1762   1.105       .  S
C1751      H1763   1.110       .  S
C1751      H1764   1.110       .  S
C1765      C1766   1.392       .  A
C1765      C1770   1.385       .  A
C1765      H1775   1.071       .  S
C1766      C1767   1.415       .  A
C1766      C1771   1.482       .  S
C1767      C1768   1.404       .  A
C1767      C1772   1.508       .  S
C1768      C1769   1.407       .  A
C1768      H1773   1.083       .  S
C1769      C1770   1.417       .  A
C1770      C1774   1.505       .  S
C1771      C1776   1.417       .  A
C1771      C1780   1.401       .  A
C1772      H1788   1.107       .  S
C1772      H1789   1.111       .  S
C1772      H1790   1.111       .  S
C1774      H1785   1.092       .  S
C1774      H1786   1.106       .  S
C1774      H1787   1.110       .  S
C1776      C1777   1.403       .  A
C1776      C1781   1.508       .  S
C1777      C1778   1.401       .  A
C1777      H1782   1.083       .  S
C1778      C1779   1.410       .  A
C1779      C1780   1.393       .  A
C1779      C1783   1.510       .  S
C1780      H1784   1.077       .  S
C1781      H1791   1.108   1_565  S
C1781      H1792   1.102       .  S
C1781      H1793   1.109   1_565  S
C1783      H1794   1.109       .  S
C1783      H1795   1.109       .  S
C1783      H1796   1.111       .  S
C1797      C1798   1.389       .  A
C1797      C1802   1.402       .  A
C1797      H1807   1.079       .  S
C1798      C1799   1.419       .  A
C1798      C1803   1.504       .  S
C1799      C1800   1.415       .  A
C1799      C1804   1.507       .  S
C1800      C1801   1.417       .  A
C1800      H1805   1.085       .  S
C1801      C1802   1.426       .  A
C1802      C1806   1.480       .  S
C1803      C1808   1.428       .  A
C1803      C1812   1.405       .  A
C1804      H1820   1.110       .  S
C1804      H1821   1.102       .  S
C1804      H1822   1.110       .  S
C1806      H1817   1.090       .  S
C1806      H1818   1.107       .  S
C1806      H1819   1.100       .  S
C1808      C1809   1.393       .  A
C1808      C1813   1.505       .  S
C1809      C1810   1.399       .  A
C1809      H1814   1.085       .  S
C1810      C1811   1.418       .  A
C1811      C1812   1.408       .  A
C1811      C1815   1.506       .  S
C1812      H1816   1.083       .  S
C1813      H1823   1.110       .  S
C1813      H1824   1.110       .  S
C1813      H1825   1.094       .  S
C1815      H1826   1.111       .  S
C1815      H1827   1.111       .  S
C1815      H1828   1.110       .  S
C1829      C1830   1.796       .  A
C1829      C1834   1.809       .  A
C1829      H1839   1.079       .  S
C1830      C1831   1.797       .  A
C1830      C1835   1.516       .  S
C1831      C1832   1.762       .  A
C1831      C1836   1.489       .  S
C1832      C1833   1.797       .  A
C1832      H1837   1.062       .  S
C1833      C1834   1.829       .  A
C1834      C1838   1.491       .  S
C1835      C1840   1.417       .  A
C1835      C1844   1.412       .  A
C1836      H1852   1.106       .  S
C1836      H1853   1.108       .  S
C1836      H1854   1.108       .  S
C1838      H1849   1.109       .  S
C1838      H1850   1.109       .  S
C1838      H1851   1.109       .  S
C1840      C1841   1.420       .  A
C1840      C1845   1.505       .  S
C1841      C1842   1.414       .  A
C1841      H1846   1.080       .  S
C1842      C1843   1.412       .  A
C1843      C1844   1.407       .  A
C1843      C1847   1.510       .  S
C1844      H1848   1.034       .  S
C1845      H1855   1.110       .  S
C1845      H1856   1.107       .  S
C1845      H1857   1.109       .  S
C1847      H1858   1.109       .  S
C1847      H1859   1.111       .  S
C1847      H1860   1.109       .  S
C1861      C1862   1.405       .  A
C1861      C1866   1.469       .  A
C1861      H1871   1.042       .  S
C1862      C1863   1.406       .  A
C1862      C1867   1.491       .  S
C1863      C1864   1.398       .  A
C1863      C1868   1.506       .  S
C1864      C1865   1.409       .  A
C1864      H1869   1.081       .  S
C1865      C1866   1.512       .  A
C1866      C1870   2.917       .  S
C1867      C1872   1.416       .  A
C1867      C1876   1.399       .  A
C1868      H1884   1.109       .  S
C1868      H1885   1.110       .  S
C1868      H1886   1.110       .  S
C1870      H1881   1.129       .  S
C1870      H1882   1.131       .  S
C1870      H1883   1.130       .  S
C1872      C1873   1.414       .  A
C1872      C1877   1.504       .  S
C1873      C1874   1.406       .  A
C1873      H1878   1.084       .  S
C1874      C1875   1.419       .  A
C1875      C1876   1.398       .  A
C1875      C1879   1.511       .  S
C1876      H1880   1.085       .  S
C1877      H1887   1.111       .  S
C1877      H1888   1.108       .  S
C1877      H1889   1.105       .  S
C1879      H1890   1.111       .  S
C1879      H1891   1.109       .  S
C1879      H1892   1.111       .  S
C1893      C1894   1.407       .  A
C1893      C1898   1.413       .  A
C1893      H1903   1.084       .  S
C1894      C1895   1.410       .  A
C1894      C1899   1.494       .  S
C1895      C1896   1.402       .  A
C1895      C1900   1.506       .  S
C1896      C1897   1.406       .  A
C1896      H1901   1.080       .  S
C1897      C1898   1.416       .  A
C1898      C1902   1.505       .  S
C1899      C1904   1.406       .  A
C1899      C1908   1.407       .  A
C1900      H1916   1.102       .  S
C1900      H1917   1.103       .  S
C1900      H1918   1.110       .  S
C1902      H1913   1.110       .  S
C1902      H1914   1.110       .  S
C1902      H1915   1.109       .  S
C1904      C1905   1.400       .  A
C1904      C1909   1.506       .  S
C1905      C1906   1.411       .  A
C1905      H1910   1.084       .  S
C1906      C1907   1.422       .  A
C1907      C1908   1.415       .  A
C1907      C1911   1.505       .  S
C1908      H1912   1.084       .  S
C1909      H1919   1.111       .  S
C1909      H1920   1.110       .  S
C1909      H1921   1.105       .  S
C1911      H1922   1.110       .  S
C1911      H1923   1.105   1_655  S
C1911      H1924   1.106   1_655  S
C1925      C1926   1.402       .  A
C1925      C1930   1.412       .  A
C1925      H1935   1.083       .  S
C1926      C1927   1.420       .  A
C1926      C1931   1.512       .  S
C1927      C1928   1.413       .  A
C1927      C1932   1.502       .  S
C1928      C1929   1.403       .  A
C1928      H1933   1.084       .  S
C1929      C1930   1.424       .  A
C1930      C1934   1.504       .  S
C1931      C1936   1.421       .  A
C1931      C1940   1.407       .  A
C1932      H1948   1.107       .  S
C1932      H1949   1.102       .  S
C1932      H1950   1.110       .  S
C1934      H1945   1.107       .  S
C1934      H1946   1.111       .  S
C1934      H1947   1.110   1_545  S
C1936      C1937   1.411       .  A
C1936      C1941   1.508       .  S
C1937      C1938   1.404       .  A
C1937      H1942   1.084       .  S
C1938      C1939   1.421       .  A
C1939      C1940   1.410       .  A
C1939      C1943   1.508       .  S
C1940      H1944   1.082       .  S
C1941      H1951   1.111       .  S
C1941      H1952   1.108       .  S
C1941      H1953   1.108       .  S
C1943      H1954   1.110       .  S
C1943      H1955   1.106       .  S
C1943      H1956   1.105       .  S
C1957      C1958   1.400       .  A
C1957      C1962   1.408       .  A
C1957      H1967   1.084       .  S
C1958      C1959   1.410       .  A
C1958      C1963   1.475   1_545  S
C1959      C1960   1.384       .  A
C1959      C1964   1.499       .  S
C1960      C1961   1.397       .  A
C1960      H1965   1.084       .  S
C1961      C1962   1.421       .  A
C1962      C1966   1.504       .  S
C1963      C1968   1.410       .  A
C1963      C1972   1.396       .  A
C1964      H1980   1.110       .  S
C1964      H1981   1.107   1_545  S
C1964      H1982   1.107       .  S
C1966      H1977   1.110       .  S
C1966      H1978   1.110       .  S
C1966      H1979   1.109       .  S
C1968      C1969   1.411       .  A
C1968      C1973   1.503       .  S
C1969      C1970   1.410       .  A
C1969      H1974   1.084       .  S
C1970      C1971   1.412       .  A
C1971      C1972   1.383       .  A
C1971      C1975   1.505       .  S
C1972      H1976   1.082   1_565  S
C1973      H1983   1.111       .  S
C1973      H1984   1.110       .  S
C1973      H1985   1.111       .  S
C1975      H1986   1.108       .  S
C1975      H1987   1.105       .  S
C1975      H1988   1.111       .  S
C1989      C1990   1.406       .  A
C1989      C1994   1.405       .  A
C1989      H1999   1.082       .  S
C1990      C1991   1.423       .  A
C1990      C1995   1.510       .  S
C1991      C1992   1.410       .  A
C1991      C1996   1.509       .  S
C1992      C1993   1.402       .  A
C1992      H1997   1.083       .  S
C1993      C1994   1.417       .  A
C1994      C1998   1.505       .  S
C1995      C2000   1.420       .  A
C1995      C2004   1.406       .  A
C1996      H2012   1.108       .  S
C1996      H2013   1.108       .  S
C1996      H2014   1.111       .  S
C1998      H2009   1.110       .  S
C1998      H2010   1.106       .  S
C1998      H2011   1.104       .  S
C2000      C2001   1.402       .  A
C2000      C2005   1.504       .  S
C2001      C2002   1.402       .  A
C2001      H2006   1.084       .  S
C2002      C2003   1.423       .  A
C2003      C2004   1.413       .  A
C2003      C2007   1.507       .  S
C2004      H2008   1.082       .  S
C2005      H2015   1.111       .  S
C2005      H2016   1.108       .  S
C2005      H2017   1.104       .  S
C2007      H2018   1.111       .  S
C2007      H2019   1.110       .  S
C2007      H2020   1.110       .  S
C2021      C2022   1.412       .  A
C2021      C2026   1.419       .  A
C2021      H2031   1.081       .  S
C2022      C2023   1.426       .  A
C2022      C2027   1.534       .  S
C2023      C2024   1.416       .  A
C2023      C2028   1.505       .  S
C2024      C2025   1.404       .  A
C2024      H2029   1.081       .  S
C2025      C2026   1.420       .  A
C2026      C2030   1.505       .  S
C2027      C2032   1.426       .  A
C2027      C2036   1.410       .  A
C2028      H2044   1.097       .  S
C2028      H2045   1.105       .  S
C2028      H2046   1.110       .  S
C2030      H2041   1.110       .  S
C2030      H2042   1.110       .  S
C2030      H2043   1.109       .  S
C2032      C2033   1.420       .  A
C2032      C2037   1.505       .  S
C2033      C2034   1.405       .  A
C2033      H2038   1.084       .  S
C2034      C2035   1.421       .  A
C2035      C2036   1.419       .  A
C2035      C2039   1.503   1_455  S
C2036      H2040   1.083       .  S
C2037      H2047   1.111       .  S
C2037      H2048   1.104       .  S
C2037      H2049   1.108       .  S
C2039      H2050   1.110       .  S
C2039      H2051   1.105       .  S
C2039      H2052   1.106       .  S
C2053      C2054   1.407       .  A
C2053      C2058   1.417       .  A
C2053      H2063   1.081       .  S
C2054      C2055   1.419       .  A
C2054      C2059   1.522       .  S
C2055      C2056   1.414       .  A
C2055      C2060   1.503       .  S
C2056      C2057   1.405       .  A
C2056      H2061   1.084       .  S
C2057      C2058   1.427       .  A
C2058      C2062   1.508       .  S
C2059      C2064   1.422       .  A
C2059      C2068   1.407       .  A
C2060      H2076   1.109       .  S
C2060      H2077   1.105       .  S
C2060      H2078   1.109       .  S
C2062      H2073   1.110       .  S
C2062      H2074   1.111       .  S
C2062      H2075   1.110       .  S
C2064      C2065   1.416       .  A
C2064      C2069   1.501       .  S
C2065      C2066   1.410       .  A
C2065      H2070   1.083       .  S
C2066      C2067   1.425       .  A
C2067      C2068   1.416       .  A
C2067      C2071   1.501       .  S
C2068      H2072   1.083       .  S
C2069      H2079   1.109       .  S
C2069      H2080   1.109       .  S
C2069      H2081   1.107       .  S
C2071      H2082   1.111       .  S
C2071      H2083   1.108       .  S
C2071      H2084   1.109       .  S
C2085      C2086   1.401       .  A
C2085      C2090   1.402       .  A
C2085      H2095   1.082       .  S
C2086      C2087   1.429       .  A
C2086      C2091   1.518       .  S
C2087      C2088   1.417       .  A
C2087      C2092   1.504       .  S
C2088      C2089   1.405       .  A
C2088      H2093   1.084       .  S
C2089      C2090   1.421       .  A
C2090      C2094   1.510       .  S
C2091      C2096   1.423       .  A
C2091      C2100   1.409       .  A
C2092      H2108   1.100       .  S
C2092      H2109   1.110       .  S
C2092      H2110   1.110       .  S
C2094      H2105   1.097       .  S
C2094      H2106   1.110       .  S
C2094      H2107   1.111       .  S
C2096      C2097   1.405       .  A
C2096      C2101   1.509       .  S
C2097      C2098   1.405       .  A
C2097      H2102   1.080       .  S
C2098      C2099   1.424       .  A
C2099      C2100   1.418       .  A
C2099      C2103   1.504       .  S
C2100      H2104   1.084       .  S
C2101      H2111   1.100       .  S
C2101      H2112   1.103       .  S
C2101      H2113   1.109       .  S
C2103      H2114   1.110       .  S
C2103      H2115   1.108       .  S
C2103      H2116   1.110       .  S
C2117      C2118   1.401       .  A
C2117      C2122   1.407       .  A
C2117      H2127   1.084       .  S
C2118      C2119   1.404       .  A
C2118      C2123   1.469   1_455  S
C2119      C2120   1.383       .  A
C2119      C2124   1.499       .  S
C2120      C2121   1.401       .  A
C2120      H2125   1.080       .  S
C2121      C2122   1.423       .  A
C2122      C2126   1.503       .  S
C2123      C2128   1.412       .  A
C2123      C2132   1.406       .  A
C2124      H2140   1.110   1_455  S
C2124      H2141   1.104   1_455  S
C2124      H2142   1.108       .  S
C2126      H2137   1.110       .  S
C2126      H2138   1.110       .  S
C2126      H2139   1.108       .  S
C2128      C2129   1.383       .  A
C2128      C2133   1.510       .  S
C2129      C2130   1.401       .  A
C2129      H2134   1.085       .  S
C2130      C2131   1.410       .  A
C2131      C2132   1.408       .  A
C2131      C2135   1.503       .  S
C2132      H2136   1.084       .  S
C2133      H2143   1.111       .  S
C2133      H2144   1.105   1_655  S
C2133      H2145   1.110       .  S
C2135      H2146   1.110       .  S
C2135      H2147   1.109       .  S
C2135      H2148   1.110       .  S
C2149      C2150   1.407       .  A
C2149      C2154   1.406       .  A
C2149      H2159   1.076       .  S
C2150      C2151   1.411       .  A
C2150      C2155   1.499       .  S
C2151      C2152   1.404       .  A
C2151      C2156   1.509       .  S
C2152      C2153   1.414       .  A
C2152      H2157   1.084       .  S
C2153      C2154   1.412       .  A
C2154      C2158   1.504       .  S
C2155      C2160   1.414       .  A
C2155      C2164   1.408       .  A
C2156      H2172   1.110       .  S
C2156      H2173   1.108       .  S
C2156      H2174   1.111       .  S
C2158      H2169   1.111       .  S
C2158      H2170   1.109       .  S
C2158      H2171   1.109   1_455  S
C2160      C2161   1.399       .  A
C2160      C2165   1.503       .  S
C2161      C2162   1.400       .  A
C2161      H2166   1.064       .  S
C2162      C2163   1.420       .  A
C2163      C2164   1.405       .  A
C2163      C2167   1.506       .  S
C2164      H2168   1.083       .  S
C2165      H2175   1.105       .  S
C2165      H2176   1.102       .  S
C2165      H2177   1.109       .  S
C2167      H2178   1.109       .  S
C2167      H2179   1.109       .  S
C2167      H2180   1.110       .  S
C2181      C2182   1.410       .  A
C2181      C2186   1.409       .  A
C2181      H2191   1.083       .  S
C2182      C2183   1.418       .  A
C2182      C2187   1.502       .  S
C2183      C2184   1.397       .  A
C2183      C2188   1.508       .  S
C2184      C2185   1.405       .  A
C2184      H2189   1.083       .  S
C2185      C2186   1.414       .  A
C2186      C2190   1.506       .  S
C2187      C2192   1.421       .  A
C2187      C2196   1.408       .  A
C2188      H2204   1.108       .  S
C2188      H2205   1.107       .  S
C2188      H2206   1.111       .  S
C2190      H2201   1.110       .  S
C2190      H2202   1.110       .  S
C2190      H2203   1.108       .  S
C2192      C2193   1.407       .  A
C2192      C2197   1.509       .  S
C2193      C2194   1.403       .  A
C2193      H2198   1.084       .  S
C2194      C2195   1.411       .  A
C2195      C2196   1.404       .  A
C2195      C2199   1.503       .  S
C2196      H2200   1.080       .  S
C2197      H2207   1.111       .  S
C2197      H2208   1.107       .  S
C2197      H2209   1.110       .  S
C2199      H2210   1.111       .  S
C2199      H2211   1.096   1_565  S
C2199      H2212   1.110       .  S
C2213      C2214   1.400       .  A
C2213      C2218   1.390       .  A
C2213      H2223   1.082       .  S
C2214      C2215   1.415       .  A
C2214      C2219   1.480       .  S
C2215      C2216   1.401       .  A
C2215      C2220   1.503       .  S
C2216      C2217   1.400       .  A
C2216      H2221   1.085       .  S
C2217      C2218   1.405       .  A
C2218      C2222   1.509       .  S
C2219      C2224   1.414       .  A
C2219      C2228   1.397       .  A
C2220      H2236   1.103       .  S
C2220      H2237   1.110       .  S
C2220      H2238   1.111   1_455  S
C2222      H2233   1.108       .  S
C2222      H2234   1.108       .  S
C2222      H2235   1.109       .  S
C2224      C2225   1.409       .  A
C2224      C2229   1.509       .  S
C2225      C2226   1.409       .  A
C2225      H2230   1.083       .  S
C2226      C2227   1.413       .  A
C2227      C2228   1.399       .  A
C2227      C2231   1.495       .  S
C2228      H2232   1.085       .  S
C2229      H2239   1.110       .  S
C2229      H2240   1.107       .  S
C2229      H2241   1.111       .  S
C2231      H2242   1.108       .  S
C2231      H2243   1.106       .  S
C2231      H2244   1.098       .  S
C2245      C2246   1.399       .  A
C2245      C2250   1.399       .  A
C2245      H2255   1.083       .  S
C2246      C2247   1.419       .  A
C2246      C2251   1.491       .  S
C2247      C2248   1.403       .  A
C2247      C2252   1.509       .  S
C2248      C2249   1.402       .  A
C2248      H2253   1.084       .  S
C2249      C2250   1.420       .  A
C2250      C2254   1.504       .  S
C2251      C2256   1.418       .  A
C2251      C2260   1.401       .  A
C2252      H2268   1.108       .  S
C2252      H2269   1.109       .  S
C2252      H2270   1.111       .  S
C2254      H2265   1.110       .  S
C2254      H2266   1.110       .  S
C2254      H2267   1.106       .  S
C2256      C2257   1.403       .  A
C2256      C2261   1.511       .  S
C2257      C2258   1.406       .  A
C2257      H2262   1.083       .  S
C2258      C2259   1.420       .  A
C2259      C2260   1.404       .  A
C2259      C2263   1.506       .  S
C2260      H2264   1.083       .  S
C2261      H2271   1.111       .  S
C2261      H2272   1.108       .  S
C2261      H2273   1.108       .  S
C2263      H2274   1.111       .  S
C2263      H2275   1.110       .  S
C2263      H2276   1.109       .  S
C2277      C2278   1.405       .  A
C2277      C2282   1.412       .  A
C2277      H2287   1.084       .  S
C2278      C2279   1.406       .  A
C2278      C2283   1.476   1_565  S
C2279      C2280   1.382       .  A
C2279      C2284   1.507       .  S
C2280      C2281   1.401       .  A
C2280      H2285   1.077       .  S
C2281      C2282   1.419       .  A
C2282      C2286   1.504       .  S
C2283      C2288   1.407       .  A
C2283      C2292   1.400       .  A
C2284      H2300   1.110       .  S
C2284      H2301   1.107   1_565  S
C2284      H2302   1.111       .  S
C2286      H2297   1.110       .  S
C2286      H2298   1.110       .  S
C2286      H2299   1.109       .  S
C2288      C2289   1.406       .  A
C2288      C2293   1.504       .  S
C2289      C2290   1.409       .  A
C2289      H2294   1.084       .  S
C2290      C2291   1.419       .  A
C2291      C2292   1.393       .  A
C2291      C2295   1.509       .  S
C2292      H2296   1.086       .  S
C2293      H2303   1.111       .  S
C2293      H2304   1.110       .  S
C2293      H2305   1.111       .  S
C2295      H2306   1.110       .  S
C2295      H2307   1.106       .  S
C2295      H2308   1.110       .  S
C2309      C2310   1.389       .  A
C2309      C2314   1.385   1_455  A
C2309      H2319   1.062       .  S
C2310      C2311   1.414   1_455  A
C2310      C2315   1.487       .  S
C2311      C2312   1.422       .  A
C2311      C2316   1.502       .  S
C2312      C2313   1.413       .  A
C2312      H2317   1.083       .  S
C2313      C2314   1.417       .  A
C2314      C2318   1.504       .  S
C2315      C2320   1.411       .  A
C2315      C2324   1.406       .  A
C2316      H2332   1.110       .  S
C2316      H2333   1.108       .  S
C2316      H2334   1.110       .  S
C2318      H2329   1.100       .  S
C2318      H2330   1.103       .  S
C2318      H2331   1.092       .  S
C2320      C2321   1.406       .  A
C2320      C2325   1.502       .  S
C2321      C2322   1.414       .  A
C2321      H2326   1.070       .  S
C2322      C2323   1.423       .  A
C2323      C2324   1.413       .  A
C2323      C2327   1.501       .  S
C2324      H2328   1.083       .  S
C2325      H2335   1.110       .  S
C2325      H2336   1.108       .  S
C2325      H2337   1.107       .  S
C2327      H2338   1.109       .  S
C2327      H2339   1.109       .  S
C2327      H2340   1.110       .  S
