geometry optimzed in LAMMPS
_audit_creation_date              2020-12-01 
_audit_creation_method            'lammps2cif' 
_symmetry_space_group_name_H-M    'P1' 
_symmetry_Int_Tables_number       1 
_symmetry_cell_setting            triclinic 
loop_ 
_symmetry_equiv_pos_as_xyz 
  x,y,z 
_cell_length_a                    45.15305766 
_cell_length_b                    45.26725209684962 
_cell_length_c                    36.06798386774048 
_cell_angle_alpha                 90.6169598211473 
_cell_angle_beta                  90.06998819047365 
_cell_angle_gamma                 89.29428099325676 
loop_ 
_atom_site_label 
_atom_site_type_symbol 
_atom_site_fract_x 
_atom_site_fract_y 
_atom_site_fract_z 
_atom_site_charge 
O1          O  0.03610387  0.47124224  0.40693976    -0.74700
O2          O  0.46829498  0.02186090  0.41222846    -0.74800
O3          O  0.47557705  0.46076324  0.40731582    -0.74800
O4          O  0.02649162  0.03363381  0.41113162    -0.74900
O5          O  0.02342977  0.03383361  0.34952109    -0.74800
O6          O  0.47849291  0.46076535  0.34565641    -0.74800
O7          O  0.46671423  0.02217591  0.35072039    -0.74800
O8          O  0.03693407  0.47263707  0.34522027    -0.74800
Ni9        Ni  0.50256881  0.99670986  0.41233265     1.25400
Ni10       Ni  0.00107671  0.49689868  0.34383671     1.25400
C11         C  0.04764424  0.46317048  0.37607279     0.87400
C12         C  0.45599544  0.03051647  0.38233499     0.87400
C13         C  0.46869703  0.44972459  0.37541237     0.87400
C14         C  0.03301849  0.04507986  0.37963720     0.87600
O15         O  0.03260314  0.48239163  0.09295032    -0.74700
O16         O  0.46427596  0.03073302  0.09261435    -0.74800
O17         O  0.02379292  0.04064346  0.09606265    -0.74800
O18         O  0.47325132  0.47167751  0.08794210    -0.74900
O19         O  0.47383195  0.47091361  0.14960668    -0.74800
O20         O  0.02152063  0.03886751  0.15756905    -0.74800
O21         O  0.46251167  0.03027766  0.15432748    -0.74800
O22         O  0.03370479  0.48027469  0.15459199    -0.74800
Ni23       Ni  0.49895050  0.00678008  0.09078641     1.25400
Ni24       Ni  0.49777445  0.00523436  0.15682163     1.25400
C25         C  0.04450306  0.47291652  0.12266768     0.87400
C26         C  0.45208433  0.03896017  0.12298972     0.87400
C27         C  0.02964106  0.05196965  0.12817471     0.87400
C28         C  0.46506665  0.46006522  0.11875156     0.87600
N29         N  0.15679397  0.20075392  0.49851543    -0.36900
N30         N  0.16006398  0.24363301  0.43938977    -0.57500
N31         N  0.15831178  0.29087351  0.49522759    -0.36900
N32         N  0.15015846  0.24785038  0.05394139    -0.57500
C33         C  0.14976508  0.18411672  0.46844827     0.26700
C34         C  0.14484121  0.18677631  0.02663804     0.26700
C35         C  0.16520956  0.30668658  0.46465291     0.26700
C36         C  0.16028104  0.30922712  0.02616957     0.26700
C37         C  0.16805037  0.21843890  0.42130396     0.35300
C38         C  0.16995863  0.26631055  0.41898237     0.35300
C39         C  0.15861534  0.22376926  0.07336463     0.35300
C40         C  0.15954859  0.27154291  0.07352166     0.35300
C41         C  0.13526053  0.15890720  0.47987442    -0.22200
C42         C  0.13138298  0.16099893  0.01517148    -0.22200
C43         C  0.17562793  0.33402208  0.47567627    -0.22200
C44         C  0.17450663  0.33480600  0.01636502    -0.22200
C45         C  0.18389472  0.22489817  0.38975339    -0.23300
C46         C  0.18632944  0.25517407  0.38929395    -0.23300
C47         C  0.17424193  0.23193180  0.10466515    -0.23300
C48         C  0.17590286  0.26223875  0.10390233    -0.23300
C49         C  0.15863830  0.19015967  0.43164467    -0.18600
C50         C  0.15058462  0.19482840  0.06377578    -0.18600
C51         C  0.15420094  0.30121295  0.06323293    -0.18600
C52         C  0.16384287  0.29660721  0.42716970    -0.18600
H53         H  0.12752886  0.14069166  0.46299089     0.14300
H54         H  0.12090508  0.14486189  0.03247646     0.14300
H55         H  0.18481562  0.35093290  0.45829053     0.14300
H56         H  0.18259944  0.35167061  0.03500314     0.14300
H57         H  0.19343483  0.20946074  0.36986846     0.12600
H58         H  0.19966973  0.26738446  0.36999084     0.12600
H59         H  0.18434490  0.21751336  0.12494407     0.12600
H60         H  0.18869950  0.27574230  0.12280186     0.12600
H61         H  0.17063600  0.21901703  0.49873054     0.25800
H62         H  0.14848091  0.27024755  0.49538100     0.25800
C63         C  0.36993193  0.37080117  0.36383246     0.86200
C64         C  0.36903704  0.34264002  0.38678487    -0.54100
C65         C  0.34131195  0.33398266  0.39566595     0.09100
C66         C  0.31647904  0.35354900  0.37912812     0.20000
C67         C  0.35106670  0.36285345  0.32919464    -0.54800
C68         C  0.32217329  0.35531522  0.33679520     0.09200
C69         C  0.35125272  0.39311368  0.38581245    -0.54300
C70         C  0.32291807  0.38511176  0.39347111     0.09800
H71         H  0.38839181  0.33051102  0.39633854     0.14300
H72         H  0.29496462  0.34411716  0.38555273     0.00000
H73         H  0.35995385  0.36283662  0.30132467     0.14600
H74         H  0.36097939  0.41347124  0.39587357     0.14400
C75         C  0.36751687  0.37636098  0.12012641     0.86200
C76         C  0.34866447  0.39761012  0.09741472    -0.54100
C77         C  0.32090160  0.38844496  0.08948252     0.09100
C78         C  0.31484405  0.35688351  0.10254804     0.20000
C79         C  0.34781272  0.36778356  0.15368241    -0.54800
C80         C  0.31919602  0.35937926  0.14476108     0.09200
C81         C  0.36810135  0.34780824  0.09667422    -0.54300
C82         C  0.34067782  0.33745199  0.08759263     0.09800
H83         H  0.35705480  0.41863343  0.08804426     0.14300
H84         H  0.29331955  0.34776398  0.09389700     0.00000
H85         H  0.35627222  0.36737989  0.18172605     0.14600
H86         H  0.38822271  0.33693233  0.08698758     0.14400
C87         C  0.11965537  0.13882333  0.13223047     0.86200
C88         C  0.13516281  0.11397936  0.11046788    -0.54100
C89         C  0.16210500  0.12032656  0.09698453     0.09100
C90         C  0.17222535  0.15175966  0.10676550     0.20000
C91         C  0.14258226  0.14744400  0.16265055    -0.54800
C92         C  0.17125718  0.15247338  0.15011469     0.09200
C93         C  0.11992170  0.16576978  0.10686595    -0.54300
C94         C  0.14704001  0.17238726  0.09331587     0.09800
H95         H  0.12516463  0.09250121  0.10564860     0.14300
H96         H  0.19226192  0.15867464  0.09250124     0.00000
H97         H  0.13671555  0.15072350  0.19133419     0.14600
H98         H  0.10017448  0.17820627  0.09917268     0.14400
C99         C  0.12684504  0.12982853  0.36855188     0.86200
C100        C  0.12717540  0.15801509  0.39244333    -0.54100
C101        C  0.15474473  0.16693283  0.40247099     0.09100
C102        C  0.18006548  0.14755749  0.38602535     0.20000
C103        C  0.14608461  0.13849345  0.33469322    -0.54800
C104        C  0.17503216  0.14613144  0.34303294     0.09200
C105        C  0.14552810  0.10741703  0.38975132    -0.54300
C106        C  0.17314195  0.11598513  0.39841793     0.09800
H107        H  0.10746144  0.16976313  0.40190395     0.14300
H108        H  0.20174935  0.15575164  0.39565113     0.00000
H109        H  0.13719540  0.13895380  0.30685166     0.14600
H110        H  0.13760311  0.08555609  0.39680530     0.14400
C111        C  0.24229535  0.46555850  0.01023812     0.02000
C112        C  0.24892434  0.46971508  0.47393847     0.01900
C113        C  0.24227232  0.99671580  0.45765724    -0.18600
C114        C  0.22343729  0.01737197  0.47562458     0.02000
C115        C  0.20976200  0.01049313  0.01041447     0.01900
C116        C  0.21730758  0.98366013  0.02695328    -0.18600
H117        H  0.20960833  0.97908196  0.05477772     0.04000
H118        H  0.25135721  0.00156606  0.43064522     0.04000
N119        N  0.33283258  0.30363839  0.49219338    -0.36900
N120        N  0.33978061  0.25641607  0.43380339    -0.57500
N121        N  0.34850470  0.21328036  0.49130341    -0.36900
N122        N  0.33607680  0.25896885  0.05102078    -0.57500
C123        C  0.33439168  0.32059765  0.46156384     0.26700
C124        C  0.33215375  0.32119089  0.02252009     0.26700
C125        C  0.34104687  0.19638852  0.46126257     0.26700
C126        C  0.33935408  0.19726983  0.02253496     0.26700
C127        C  0.34172795  0.28106731  0.41279655     0.35300
C128        C  0.34908633  0.23318083  0.41223117     0.35300
C129        C  0.34355849  0.28378117  0.07010959     0.35300
C130        C  0.35075018  0.23646302  0.06759890     0.35300
C131        C  0.33702004  0.34990649  0.47241565    -0.22200
C132        C  0.33480959  0.35003433  0.01091192    -0.22200
C133        C  0.32679775  0.17137142  0.47367597    -0.22200
C134        C  0.32614988  0.17108949  0.01160789    -0.22200
C135        C  0.35190357  0.27368345  0.37799707    -0.23300
C136        C  0.35734556  0.24423189  0.37799002    -0.23300
C137        C  0.36275348  0.27693644  0.09865220    -0.23300
C138        C  0.36853546  0.24743866  0.09537830    -0.23300
C139        C  0.33690932  0.31075291  0.42420095    -0.18600
C140        C  0.33642417  0.31296479  0.05987423    -0.18600
C141        C  0.34626775  0.20615752  0.05974695    -0.18600
C142        C  0.34824436  0.20267571  0.42333171    -0.18600
H143        H  0.34156368  0.36874143  0.45565955     0.14300
H144        H  0.33895470  0.36955097  0.02718431     0.14300
H145        H  0.31739104  0.15392016  0.45682721     0.14300
H146        H  0.31685935  0.15445588  0.02933910     0.14300
H147        H  0.35647962  0.28814434  0.35504230     0.12600
H148        H  0.36714132  0.23420688  0.35435152     0.12600
H149        H  0.37366318  0.29175585  0.11780781     0.12600
H150        H  0.38535311  0.23579372  0.11016830     0.12600
H151        H  0.33114385  0.28083133  0.49229847     0.25800
H152        H  0.36136370  0.23227765  0.49075263     0.25800
N153        N  0.20157278  0.32961632  0.24072963    -0.36900
N154        N  0.24262467  0.33930728  0.18095170    -0.57500
N155        N  0.29232114  0.34361538  0.23979776    -0.36900
N156        N  0.24658821  0.33473239  0.29936852    -0.57500
C157        C  0.18382249  0.32499020  0.21096316     0.26700
C158        C  0.18558449  0.32284706  0.27109115     0.26700
C159        C  0.30001783  0.36027204  0.21042866     0.26700
C160        C  0.30339393  0.35757883  0.27024478     0.26700
C161        C  0.21664815  0.34619953  0.16378308     0.35300
C162        C  0.26436317  0.35246515  0.16157125     0.35300
C163        C  0.22107285  0.34102958  0.31788185     0.35300
C164        C  0.26815764  0.34904132  0.31816525     0.35300
C165        C  0.15725620  0.31366541  0.22267418    -0.22200
C166        C  0.15797301  0.31336543  0.26026204    -0.22200
C167        C  0.31295808  0.38604578  0.22257493    -0.22200
C168        C  0.31545513  0.38421196  0.26024896    -0.22200
C169        C  0.22188820  0.36396948  0.13363140    -0.23300
C170        C  0.25174322  0.36884012  0.13339233    -0.23300
C171        C  0.22640093  0.35974545  0.34758536    -0.23300
C172        C  0.25577843  0.36606910  0.34624087    -0.23300
C173        C  0.18832431  0.33691012  0.17552333    -0.18600
C174        C  0.19274835  0.33099666  0.30770126    -0.18600
C175        C  0.29819370  0.35019371  0.30746712    -0.18600
C176        C  0.29450415  0.35403082  0.17278962    -0.18600
H177        H  0.13808045  0.30867482  0.20665468     0.14300
H178        H  0.13891001  0.30983071  0.27725741     0.14300
H179        H  0.31796782  0.40502444  0.20597778     0.14300
H180        H  0.32233560  0.40177384  0.27865113     0.14300
H181        H  0.20598071  0.37401815  0.11506609     0.12600
H182        H  0.26226788  0.38523608  0.11710687     0.12600
H183        H  0.21061823  0.36959934  0.36669635     0.12600
H184        H  0.26634021  0.38302139  0.36233252     0.12600
H185        H  0.22099496  0.34172109  0.24098324     0.25800
H186        H  0.28136164  0.32343031  0.23897391     0.25800
C187        C  0.12913014  0.36147643  0.36811133     0.86200
C188        C  0.10816444  0.33920370  0.35071631    -0.54100
C189        C  0.11945753  0.31145204  0.34515383     0.09100
C190        C  0.15260326  0.30925690  0.35473681     0.20000
C191        C  0.14187575  0.34566870  0.40279101    -0.54800
C192        C  0.15455734  0.31794255  0.39639667     0.09200
C193        C  0.15544150  0.36186710  0.34123954    -0.54300
C194        C  0.16779286  0.33478130  0.33435367     0.09800
H195        H  0.08529586  0.34500990  0.34432232     0.14300
H196        H  0.16161932  0.28786871  0.34644375     0.00000
H197        H  0.13891076  0.35534958  0.43006001     0.14600
H198        H  0.16441068  0.38134657  0.32853551     0.14400
C199        C  0.12485630  0.37201134  0.11733191     0.86200
C200        C  0.15193618  0.37074742  0.14362259    -0.54100
C201        C  0.16145803  0.34285277  0.15198600     0.09100
C202        C  0.14233048  0.31848711  0.13427625     0.20000
C203        C  0.13537754  0.35295066  0.08365644    -0.54800
C204        C  0.14483989  0.32447648  0.09208588     0.09200
C205        C  0.10138740  0.35341517  0.13584165    -0.54300
C206        C  0.10997049  0.32577525  0.14516885     0.09800
H207        H  0.16388307  0.38988856  0.15350623     0.14300
H208        H  0.14847575  0.29641078  0.14406930     0.00000
H209        H  0.13495227  0.36144657  0.05579785     0.14600
H210        H  0.07940667  0.36207313  0.14242527     0.14400
C211        C  0.36926626  0.13834785  0.12056891     0.86200
C212        C  0.34093774  0.13938989  0.14411126    -0.54100
C213        C  0.33032581  0.16724879  0.15139866     0.09100
C214        C  0.34922424  0.19197675  0.13349952     0.20000
C215        C  0.36047891  0.15545996  0.08525388    -0.54800
C216        C  0.35070516  0.18397479  0.09112466     0.09200
C217        C  0.39045853  0.15816404  0.14168430    -0.54300
C218        C  0.38155686  0.18662863  0.14768065     0.09800
H219        H  0.32998090  0.12009902  0.15479974     0.14300
H220        H  0.33979790  0.21413107  0.13930748     0.00000
H221        H  0.36315623  0.14593217  0.05782293     0.14600
H222        H  0.41161910  0.14956817  0.15148184     0.14400
C223        C  0.37004699  0.12641562  0.37342137     0.86200
C224        C  0.39275259  0.14243012  0.35039384    -0.54100
C225        C  0.38463787  0.16947655  0.33914076     0.09100
C226        C  0.35296795  0.17889398  0.35243744     0.20000
C227        C  0.36370376  0.14870420  0.40609326    -0.54800
C228        C  0.35422495  0.17679020  0.39560045     0.09200
C229        C  0.34098748  0.12695678  0.35077516    -0.54300
C230        C  0.33238718  0.15425765  0.33874002     0.09800
H231        H  0.41459060  0.13319108  0.34419736     0.14300
H232        H  0.34364053  0.19923145  0.34104656     0.00000
H233        H  0.36732667  0.14312632  0.43480453     0.14600
H234        H  0.32861676  0.10724321  0.34395196     0.14400
C235        C  0.02369447  0.26429724  0.23364933     0.02000
C236        C  0.02520511  0.25522540  0.27117083     0.01900
C237        C  0.50055682  0.24341886  0.28851878    -0.18600
C238        C  0.47524886  0.23742173  0.26718816     0.02000
C239        C  0.47461862  0.24520379  0.22938683     0.01900
C240        C  0.49898940  0.25953105  0.21420607    -0.18600
H241        H  0.49860668  0.26520763  0.18506256     0.04000
H242        H  0.50130940  0.23637144  0.31713573     0.04000
N243        N  0.29555963  0.16739575  0.24548624    -0.36900
N244        N  0.25052765  0.16878320  0.18645098    -0.57500
N245        N  0.20442255  0.16074861  0.24584887    -0.36900
N246        N  0.25259345  0.16006198  0.30433394    -0.57500
C247        C  0.31208760  0.17557283  0.21595498     0.26700
C248        C  0.31279564  0.17085079  0.27619309     0.26700
C249        C  0.19384332  0.14721480  0.21458647     0.26700
C250        C  0.19351289  0.14561622  0.27533583     0.26700
C251        C  0.27560519  0.16687853  0.16556677     0.35300
C252        C  0.22765071  0.16051815  0.16421064     0.35300
C253        C  0.27777988  0.15213556  0.32266016     0.35300
C254        C  0.22975155  0.14979124  0.32461310     0.35300
C255        C  0.33950188  0.18422373  0.22817168    -0.22200
C256        C  0.33951462  0.18251690  0.26564667    -0.22200
C257        C  0.17858468  0.12216687  0.22454285    -0.22200
C258        C  0.17872935  0.12109904  0.26243239    -0.22200
C259        C  0.26889649  0.15761456  0.13017288    -0.23300
C260        C  0.23918907  0.15247871  0.12968362    -0.23300
C261        C  0.27094688  0.13656159  0.35404920    -0.23300
C262        C  0.24096885  0.13405808  0.35429427    -0.23300
C263        C  0.30489667  0.17173119  0.17809337    -0.18600
C264        C  0.30683818  0.15950813  0.31199309    -0.18600
C265        C  0.19950339  0.15052147  0.31373028    -0.18600
C266        C  0.19795724  0.15572991  0.17685635    -0.18600
H267        H  0.35849367  0.18958690  0.21208436     0.14300
H268        H  0.35806114  0.18840091  0.28212568     0.14300
H269        H  0.16930939  0.10557066  0.20627152     0.14300
H270        H  0.17107276  0.10296470  0.27868088     0.14300
H271        H  0.28420470  0.15225480  0.10794660     0.12600
H272        H  0.22976699  0.13903836  0.10820842     0.12600
H273        H  0.28575351  0.12674696  0.37410375     0.12600
H274        H  0.22959917  0.11972408  0.37260979     0.12600
H275        H  0.27564052  0.15611911  0.24405913     0.25800
H276        H  0.21679667  0.18007155  0.24709696     0.25800
C277        C  0.40653367  0.18726063  0.31864199    -0.06400
C278        C  0.41695387  0.21313977  0.33530038    -0.17600
C279        C  0.43637246  0.23150160  0.31680059     0.10800
C280        C  0.45076199  0.22103325  0.28450088    -0.06400
C281        C  0.44329604  0.19322390  0.27011440    -0.17600
C282        C  0.42055117  0.17683146  0.28565913     0.10800
S283        S  0.44041618  0.26844559  0.33474901    -0.32600
S284        S  0.41205430  0.14234402  0.26261074    -0.32600
H285        H  0.38290437  0.14010980  0.27542324     0.28800
H286        H  0.44440792  0.28135670  0.29981594     0.28800
H287        H  0.41044575  0.21898427  0.36324068     0.19400
H288        H  0.45506443  0.18427142  0.24631852     0.19400
C289        C  0.40398431  0.20799312  0.16398212    -0.06400
C290        C  0.43404281  0.20194577  0.15557474    -0.17600
C291        C  0.45703009  0.21350689  0.17657206     0.10800
C292        C  0.45078463  0.23485031  0.20413921    -0.06400
C293        C  0.42142548  0.24493409  0.20872432    -0.17600
C294        C  0.39785405  0.23207350  0.18864877     0.10800
S295        S  0.49342105  0.19736491  0.16959848    -0.32600
S296        S  0.36108129  0.24745464  0.19478271    -0.32600
H297        H  0.36883975  0.27123133  0.21811577     0.28800
H298        H  0.00354637  0.19775939  0.20097131     0.28800
H299        H  0.43992798  0.18614861  0.13397669     0.19400
H300        H  0.41698963  0.26222244  0.22900770     0.19400
C301        C  0.09043737  0.30777491  0.16935523    -0.06400
C302        C  0.07732726  0.32217020  0.20009210    -0.17600
C303        C  0.05601494  0.30855378  0.22176587     0.10800
C304        C  0.04836135  0.27903411  0.21415918    -0.06400
C305        C  0.06254934  0.26390289  0.18471214    -0.17600
C306        C  0.08349578  0.27792944  0.16225589     0.10800
S307        S  0.03811597  0.33091783  0.25694816    -0.32600
S308        S  0.09899861  0.25809765  0.12325325    -0.32600
H309        H  0.09299372  0.22964581  0.13645514     0.28800
H310        H  0.00995514  0.31852031  0.25239360     0.28800
H311        H  0.08297867  0.34485665  0.20652745     0.19400
H312        H  0.05630429  0.24135688  0.17847360     0.19400
C313        C  0.09896122  0.28687650  0.33456871    -0.06400
C314        C  0.07023159  0.28924599  0.34906387    -0.17600
C315        C  0.04599196  0.27884963  0.32947759     0.10800
C316        C  0.05042057  0.26310656  0.29580326    -0.06400
C317        C  0.07951171  0.25502192  0.28576735    -0.17600
C318        C  0.10401149  0.26614164  0.30545732     0.10800
S319        S  0.01040843  0.29007534  0.34736853    -0.32600
S320        S  0.14037734  0.25138880  0.29499705    -0.32600
H321        H  0.13315190  0.23919234  0.26014580     0.28800
H322        H  0.99851219  0.29761370  0.31271533     0.28800
H323        H  0.06619302  0.30272970  0.37362040     0.19400
H324        H  0.08294567  0.24035711  0.26221414     0.19400
C325        C  0.19370936  0.09420384  0.41495694    -0.06400
C326        C  0.20252698  0.09821355  0.45170748    -0.17600
C327        C  0.21286850  0.07434233  0.47278328     0.10800
C328        C  0.21564960  0.04558947  0.45591255    -0.06400
C329        C  0.20882608  0.04276553  0.41802243    -0.17600
C330        C  0.19831536  0.06645702  0.39751438     0.10800
S331        S  0.21462155  0.08340109  0.02450122    -0.32600
S332        S  0.18900791  0.05903274  0.34965541    -0.32600
H333        H  0.19355605  0.08791738  0.33759192     0.28800
H334        H  0.17070625  0.05469092  0.06957918     0.28800
H335        H  0.19828576  0.11934685  0.46524915     0.19400
H336        H  0.20991783  0.02134536  0.40438223     0.19400
C337        C  0.17734739  0.09755081  0.07451989    -0.06400
C338        C  0.15912245  0.08663532  0.03583137    -0.17600
C339        C  0.16705938  0.05401074  0.01535724     0.10800
C340        C  0.19448849  0.03228578  0.03305811    -0.06400
C341        C  0.21271997  0.04284828  0.07191714    -0.19200
C342        C  0.20423746  0.07529645  0.09279073     0.10800
S343        S  0.14497281  0.04036530  0.47870828    -0.32600
S344        S  0.22181828  0.08237026  0.13639051    -0.32600
H345        H  0.19736952  0.09780208  0.15066109     0.28800
H346        H  0.15672903  0.01147759  0.47787944     0.28800
H347        H  0.14062246  0.09939644  0.02558699     0.19400
H348        H  0.23071353  0.02938977  0.08256602     0.19400
C349        C  0.29889934  0.40824118  0.07162671    -0.06400
C350        C  0.27638345  0.39614274  0.04941138    -0.17600
C351        C  0.25464723  0.41442646  0.03406236     0.10800
C352        C  0.25930791  0.44504420  0.03352886    -0.06400
C353        C  0.28106494  0.45724597  0.05633754    -0.17600
C354        C  0.29879330  0.43922191  0.07818669     0.10800
S355        S  0.22002466  0.39818652  0.02089033    -0.32600
S356        S  0.31698888  0.45698273  0.11693935    -0.32600
H357        H  0.31350098  0.43304142  0.14107520     0.28800
H358        H  0.20324952  0.42179223  0.52562486     0.28800
H359        H  0.27429447  0.37248238  0.04618509     0.19400
H360        H  0.28287882  0.48105233  0.05887667     0.19400
C361        C  0.30220490  0.40618997  0.41333866    -0.06400
C362        C  0.30861072  0.43672211  0.41196002    -0.17600
C363        C  0.29335840  0.45749642  0.43350471     0.10800
C364        C  0.26761621  0.44887873  0.45218366    -0.06400
C365        C  0.25832806  0.41970115  0.44864491    -0.17600
C366        C  0.27655570  0.39773643  0.43317721     0.10800
S367        S  0.30850916  0.49420889  0.43620696    -0.32600
S368        S  0.26695741  0.36006589  0.44310812    -0.32600
H369        H  0.23623848  0.36507060  0.44563579     0.28800
H370        H  0.30203572  0.99665807  0.48602519     0.28800
H371        H  0.32627414  0.44496585  0.39494556     0.19400
H372        H  0.23696133  0.41398771  0.45922435     0.19400
C373        C  0.06932995  0.45118168  0.11842486    -0.06400
C374        C  0.06774555  0.43115849  0.08855357    -0.17600
C375        C  0.08728203  0.40699961  0.08491164     0.10800
C376        C  0.11061232  0.40291011  0.11107716    -0.06400
C377        C  0.11350021  0.42497564  0.13924064    -0.17600
C378        C  0.09319756  0.44871466  0.14323103     0.10800
S379        S  0.07867080  0.37996906  0.04935837    -0.32600
S380        S  0.09797264  0.47564670  0.18004369    -0.32600
H381        H  0.11941222  0.45970486  0.20019894     0.28800
H382        H  0.06126854  0.39864878  0.02698370     0.28800
H383        H  0.04938958  0.43304439  0.06934642     0.19400
H384        H  0.13021233  0.42286989  0.16034367     0.19400
C385        C  0.04665415  0.08003496  0.13254428    -0.06400
C386        C  0.06145940  0.08544771  0.16626189    -0.17600
C387        C  0.08165186  0.10872164  0.17061897     0.10800
C388        C  0.08820718  0.12710411  0.14010216    -0.06400
C389        C  0.06969615  0.12406878  0.10838636    -0.17600
C390        C  0.04907419  0.10133412  0.10454267     0.10800
S391        S  0.09835648  0.11393878  0.21550876    -0.32600
S392        S  0.02710587  0.10058029  0.06281795    -0.32600
H393        H  0.00131813  0.09147287  0.08098099     0.28800
H394        H  0.08048332  0.09423324  0.23506779     0.28800
H395        H  0.05833230  0.07040491  0.18899412     0.19400
H396        H  0.07328027  0.13756530  0.08428215     0.19400
C397        C  0.38557455  0.10851797  0.11483562    -0.06400
C398        C  0.38220196  0.08579529  0.14125265    -0.17600
C399        C  0.40265578  0.06220351  0.14424832     0.10800
C400        C  0.42730397  0.06075441  0.12033416    -0.06400
C401        C  0.42984906  0.08210888  0.09279748    -0.17600
C402        C  0.41038405  0.10619655  0.09042214     0.10800
S403        S  0.39621746  0.03497540  0.17933233    -0.32600
S404        S  0.42149515  0.13550601  0.05976651    -0.32600
H405        H  0.43861146  0.11784051  0.03538031     0.28800
H406        H  0.40804128  0.01112808  0.15863195     0.28800
H407        H  0.36473902  0.08701497  0.16160984     0.19400
H408        H  0.44892897  0.08131450  0.07466124     0.19400
C409        C  0.44369162  0.43507111  0.12065503    -0.06400
C410        C  0.42412005  0.43520620  0.15081239    -0.17600
C411        C  0.40073131  0.41523678  0.15357796     0.10800
C412        C  0.39750260  0.39203536  0.12675266    -0.06400
C413        C  0.41856807  0.39117548  0.09747420    -0.17600
C414        C  0.44124564  0.41211794  0.09417022     0.10800
S415        S  0.37396238  0.42284702  0.18967023    -0.32600
S416        S  0.46585493  0.40856187  0.05507854    -0.32600
H417        H  0.49105424  0.41839067  0.07429010     0.28800
H418        H  0.38582755  0.44910939  0.20420267     0.28800
H419        H  0.42593749  0.45267408  0.17137023     0.19400
H420        H  0.41635108  0.37537602  0.07502625     0.19400
C421        C  0.09660945  0.11492291  0.36340481    -0.06400
C422        C  0.07661496  0.11629214  0.39391176    -0.17600
C423        C  0.05553427  0.09435351  0.40039108     0.10800
C424        C  0.05337672  0.07031924  0.37559554    -0.06400
C425        C  0.07159905  0.06968761  0.34420467    -0.17600
C426        C  0.09345718  0.09060894  0.33840944     0.10800
S427        S  0.03305236  0.09775629  0.44148138    -0.32600
S428        S  0.11890250  0.08264356  0.30117101    -0.32600
H429        H  0.11432441  0.05200107  0.29853465     0.28800
H430        H  0.00717159  0.08703922  0.42456456     0.28800
H431        H  0.07885824  0.13300458  0.41525283     0.19400
H432        H  0.06995537  0.05136109  0.32478544     0.19400
C433        C  0.07190589  0.44056021  0.37695786    -0.06400
C434        C  0.06864694  0.41693265  0.40138528    -0.17600
C435        C  0.08737255  0.39197190  0.40009740     0.10800
C436        C  0.11175004  0.39081372  0.37504394    -0.06400
C437        C  0.11602846  0.41584558  0.35233156    -0.17600
C438        C  0.09652357  0.44036137  0.35302067     0.10800
S439        S  0.07690495  0.36053946  0.42760427    -0.32600
S440        S  0.10427898  0.47075327  0.32273786    -0.32600
H441        H  0.09274118  0.49278396  0.34665176     0.28800
H442        H  0.05878415  0.37613421  0.45298471     0.28800
H443        H  0.04977183  0.41698723  0.41984511     0.19400
H444        H  0.13365374  0.41642426  0.33232781     0.19400
C445        C  0.40055099  0.38475055  0.35931314    -0.06400
C446        C  0.42125862  0.38172894  0.38891104    -0.17600
C447        C  0.44447113  0.40158062  0.39457231     0.10800
C448        C  0.44731391  0.42558368  0.37063139    -0.06400
C449        C  0.42819553  0.42787569  0.34017643    -0.17600
C450        C  0.40474363  0.40864081  0.33463471     0.10800
S451        S  0.46909672  0.39548263  0.43322305    -0.32600
S452        S  0.37831211  0.41917342  0.29947447    -0.32600
H453        H  0.39763630  0.43581281  0.27762503     0.28800
H454        H  0.49436411  0.40666746  0.41574062     0.28800
H455        H  0.41844248  0.36530407  0.41000329     0.19400
H456        H  0.43007731  0.44666047  0.32201376     0.19400
C457        C  0.38389457  0.09547303  0.38004860    -0.06400
C458        C  0.39913355  0.08989416  0.41341003    -0.17600
C459        C  0.42116424  0.06774951  0.41598887     0.10800
C460        C  0.42934823  0.05072077  0.38415466    -0.06400
C461        C  0.41241550  0.05429635  0.35198847    -0.17600
C462        C  0.38987488  0.07581983  0.34943125     0.10800
S463        S  0.43912130  0.06410464  0.46034558    -0.32600
S464        S  0.37199071  0.07952205  0.30468464    -0.32600
H465        H  0.38239730  0.05300326  0.28840097     0.28800
H466        H  0.43194200  0.03404129  0.46323765     0.28800
H467        H  0.39556563  0.10394863  0.43736920     0.19400
H468        H  0.41780896  0.04089609  0.32784941     0.19400
O469        O  0.03786775  0.47178883  0.90650291    -0.74700
O470        O  0.46878109  0.02264625  0.91118219    -0.74800
O471        O  0.47786470  0.46332277  0.91095474    -0.74800
O472        O  0.02722426  0.03347738  0.90897362    -0.74900
O473        O  0.02544631  0.03205690  0.84727969    -0.74800
O474        O  0.47858920  0.46512019  0.84941247    -0.74800
O475        O  0.46657832  0.02204223  0.84968995    -0.74800
O476        O  0.03809018  0.47164878  0.84470795    -0.74800
Ni477      Ni  0.50326085  0.99798436  0.91134600     1.25400
Ni478      Ni  0.00281543  0.49664177  0.84295085     1.25400
C479        C  0.04911057  0.46304484  0.87578673     0.87400
C480        C  0.45598400  0.03053461  0.88131524     0.87400
C481        C  0.46981381  0.45302653  0.87907649     0.87400
C482        C  0.03413610  0.04427046  0.87722016     0.87600
O483        O  0.03592875  0.48072356  0.59236817    -0.74700
O484        O  0.46364325  0.03041326  0.58982803    -0.74800
O485        O  0.02390251  0.03973863  0.58860399    -0.74800
O486        O  0.47795787  0.47003872  0.58811157    -0.74900
O487        O  0.47801066  0.46952878  0.64988732    -0.74800
O488        O  0.02200316  0.03724895  0.65010892    -0.74800
O489        O  0.46253177  0.02933748  0.65154896    -0.74800
O490        O  0.03613229  0.47823023  0.65402158    -0.74800
Ni491      Ni  0.49815605  0.00637804  0.58692695     1.25400
Ni492      Ni  0.49834298  0.00484688  0.65292436     1.25400
C493        C  0.04721161  0.47088587  0.62226880     0.87400
C494        C  0.45182641  0.03839042  0.62049457     0.87400
C495        C  0.03070968  0.05023174  0.62096155     0.87400
C496        C  0.46953951  0.45873094  0.61894717     0.87600
N497        N  0.15514211  0.20133119  0.99685900    -0.36900
N498        N  0.16099378  0.24463031  0.93917633    -0.57500
N499        N  0.15654732  0.29194771  0.99557241    -0.36900
N500        N  0.15447189  0.24740903  0.55499224    -0.57500
C501        C  0.14873324  0.18488267  0.96640058     0.26700
C502        C  0.14697322  0.18644202  0.52877196     0.26700
C503        C  0.16686061  0.30720014  0.96623093     0.26700
C504        C  0.16260128  0.30861159  0.52531347     0.26700
C505        C  0.16848974  0.21952483  0.92049400     0.35300
C506        C  0.17205506  0.26737672  0.91987090     0.35300
C507        C  0.16260998  0.22339235  0.57471782     0.35300
C508        C  0.16444385  0.27124867  0.57374068     0.35300
C509        C  0.13416969  0.15949519  0.97721001    -0.22200
C510        C  0.13317203  0.16065133  0.51787953    -0.22200
C511        C  0.17875033  0.33355701  0.97863546    -0.22200
C512        C  0.17404712  0.33507307  0.51369571    -0.22200
C513        C  0.18525617  0.22611888  0.88971463    -0.23300
C514        C  0.18863718  0.25633880  0.89030284    -0.23300
C515        C  0.17872461  0.23172050  0.60561992    -0.23300
C516        C  0.18080134  0.26208549  0.60425681    -0.23300
C517        C  0.15817366  0.19127054  0.92988565    -0.18600
C518        C  0.15349363  0.19457645  0.56574302    -0.18600
C519        C  0.15860771  0.30083963  0.56314229    -0.18600
C520        C  0.16651318  0.29768562  0.92863838    -0.18600
H521        H  0.12677217  0.14133339  0.96001650     0.14300
H522        H  0.12308624  0.14450149  0.53552794     0.14300
H523        H  0.19025230  0.34970155  0.96230965     0.14300
H524        H  0.18201671  0.35263169  0.53118987     0.14300
H525        H  0.19468515  0.21079013  0.86961124     0.12600
H526        H  0.20235038  0.26864578  0.87149400     0.12600
H527        H  0.18854652  0.21741084  0.62623629     0.12600
H528        H  0.19357710  0.27570921  0.62304658     0.12600
H529        H  0.16884585  0.21968651  0.99786984     0.25800
H530        H  0.14509091  0.27215330  0.99432559     0.25800
C531        C  0.37293309  0.37113263  0.86553272     0.86200
C532        C  0.37180150  0.34287916  0.88841634    -0.54100
C533        C  0.34393492  0.33429803  0.89715294     0.09100
C534        C  0.31927813  0.35454879  0.88133404     0.20000
C535        C  0.35357590  0.36341279  0.83117025    -0.54800
C536        C  0.32454263  0.35645076  0.83901694     0.09200
C537        C  0.35461178  0.39359322  0.88773955    -0.54300
C538        C  0.32626274  0.38600837  0.89578465     0.09800
H539        H  0.39130024  0.33104110  0.89821318     0.14300
H540        H  0.29777708  0.34533450  0.88817231     0.00000
H541        H  0.36234240  0.36157291  0.80340481     0.14600
H542        H  0.36474336  0.41373762  0.89773808     0.14400
C543        C  0.37060740  0.37760214  0.61964457     0.86200
C544        C  0.35142206  0.39864886  0.59693720    -0.54100
C545        C  0.32357018  0.38941358  0.58953651     0.09100
C546        C  0.31810443  0.35765291  0.60299014     0.20000
C547        C  0.35142572  0.36909673  0.65364200    -0.54800
C548        C  0.32282237  0.36023430  0.64546519     0.09200
C549        C  0.37130557  0.34901959  0.59633265    -0.54300
C550        C  0.34402707  0.33852496  0.58738963     0.09800
H551        H  0.35997260  0.41928070  0.58663516     0.14300
H552        H  0.29682854  0.34796161  0.59454246     0.00000
H553        H  0.36036736  0.36961630  0.68146893     0.14600
H554        H  0.39128409  0.33799635  0.58658375     0.14400
C555        C  0.12225461  0.13684801  0.63195200     0.86200
C556        C  0.13790811  0.11304493  0.60884677    -0.54100
C557        C  0.16487765  0.11989763  0.59609219     0.09100
C558        C  0.17490157  0.15100647  0.60778836     0.20000
C559        C  0.14497067  0.14446924  0.66309565    -0.54800
C560        C  0.17362806  0.15028113  0.65108771     0.09200
C561        C  0.12256309  0.16482939  0.60816840    -0.54300
C562        C  0.14983317  0.17211262  0.59534227     0.09800
H563        H  0.12804909  0.09167945  0.60278314     0.14300
H564        H  0.19503371  0.15842609  0.59409503     0.00000
H565        H  0.13873860  0.14651169  0.69190722     0.14600
H566        H  0.10288556  0.17747594  0.60082508     0.14400
C567        C  0.12854868  0.12893303  0.86808943     0.86200
C568        C  0.12787361  0.15809829  0.89018530    -0.54100
C569        C  0.15510453  0.16798113  0.90048844     0.09100
C570        C  0.18103689  0.14849786  0.88595990     0.20000
C571        C  0.14835131  0.13653937  0.83432572    -0.54800
C572        C  0.17691026  0.14520856  0.84309026     0.09200
C573        C  0.14720475  0.10783607  0.89128324    -0.54300
C574        C  0.17451307  0.11735778  0.89997182     0.09800
H575        H  0.10776730  0.16958133  0.89876700     0.14300
H576        H  0.20228872  0.15755750  0.89577837     0.00000
H577        H  0.14011516  0.13530618  0.80619533     0.14600
H578        H  0.13974176  0.08598308  0.89910755     0.14400
C579        C  0.24088313  0.46391052  0.51089280     0.02000
C580        C  0.25175765  0.47176573  0.97395037     0.01900
C581        C  0.24133610  0.99794699  0.95859598    -0.18600
C582        C  0.22298254  0.01879661  0.97669068     0.02000
C583        C  0.21133355  0.00950475  0.51024997     0.01900
C584        C  0.22010343  0.98333411  0.52747363    -0.18600
H585        H  0.21305317  0.97908391  0.55565584     0.04000
H586        H  0.25095654  0.00302012  0.93199410     0.04000
N587        N  0.33138552  0.30287734  0.99240365    -0.36900
N588        N  0.33981426  0.25612650  0.93413694    -0.57500
N589        N  0.34725294  0.21237914  0.99168670    -0.36900
N590        N  0.33987181  0.26020450  0.55052585    -0.57500
C591        C  0.33458570  0.32007241  0.96220703     0.26700
C592        C  0.33488286  0.32212301  0.52210534     0.26700
C593        C  0.34050680  0.19557073  0.96137645     0.26700
C594        C  0.34056776  0.19859016  0.52251532     0.26700
C595        C  0.34333784  0.28089083  0.91359940     0.35300
C596        C  0.34960949  0.23283260  0.91301664     0.35300
C597        C  0.34785548  0.28494081  0.56932767     0.35300
C598        C  0.35391758  0.23743206  0.56725833     0.35300
C599        C  0.33699696  0.34923994  0.97352572    -0.22200
C600        C  0.33693309  0.35089842  0.51004441    -0.22200
C601        C  0.32676594  0.17007170  0.97322647    -0.22200
C602        C  0.32650360  0.17275401  0.51206991    -0.22200
C603        C  0.35483834  0.27352009  0.87949906    -0.23300
C604        C  0.35957812  0.24393563  0.87956070    -0.23300
C605        C  0.36709613  0.27786028  0.59778005    -0.23300
C606        C  0.37196965  0.24810066  0.59499330    -0.23300
C607        C  0.33880923  0.31061072  0.92505716    -0.18600
C608        C  0.34010604  0.31406434  0.55943347    -0.18600
C609        C  0.34829694  0.20729124  0.55962211    -0.18600
C610        C  0.34828771  0.20224972  0.92382225    -0.18600
H611        H  0.34293825  0.36807409  0.95751945     0.14300
H612        H  0.34155097  0.37050583  0.52602224     0.14300
H613        H  0.31790914  0.15253230  0.95603758     0.14300
H614        H  0.31701118  0.15649128  0.53017137     0.14300
H615        H  0.36087218  0.28805052  0.85717416     0.12600
H616        H  0.37026393  0.23370520  0.85670041     0.12600
H617        H  0.37826085  0.29256068  0.61685730     0.12600
H618        H  0.38833503  0.23605365  0.61001734     0.12600
H619        H  0.32983786  0.28005655  0.99228374     0.25800
H620        H  0.35966692  0.23167760  0.99161510     0.25800
N621        N  0.20380356  0.33040706  0.74246741    -0.36900
N622        N  0.24645754  0.33937101  0.68303850    -0.57500
N623        N  0.29439897  0.34513780  0.74183913    -0.36900
N624        N  0.24860533  0.33604815  0.80130838    -0.57500
C625        C  0.18591044  0.32727142  0.71260539     0.26700
C626        C  0.18694090  0.32549979  0.77272693     0.26700
C627        C  0.30405611  0.36062237  0.71224925     0.26700
C628        C  0.30569845  0.35878295  0.77244214     0.26700
C629        C  0.22063989  0.34556870  0.66498648     0.35300
C630        C  0.26832972  0.35206151  0.66322576     0.35300
C631        C  0.22308940  0.34185136  0.82008559     0.35300
C632        C  0.27027013  0.34978019  0.82066735     0.35300
C633        C  0.15817112  0.31911784  0.72432769    -0.22200
C634        C  0.15850370  0.31880405  0.76181791    -0.22200
C635        C  0.31837644  0.38560190  0.72452002    -0.22200
C636        C  0.31989763  0.38428312  0.76229029    -0.22200
C637        C  0.22616977  0.36230297  0.63405270    -0.23300
C638        C  0.25582291  0.36752293  0.63429188    -0.23300
C639        C  0.22849938  0.35969518  0.85058058    -0.23300
C640        C  0.25788351  0.36593856  0.84951183    -0.23300
C641        C  0.19191376  0.33741483  0.67660582    -0.18600
C642        C  0.19458874  0.33253861  0.80948479    -0.18600
C643        C  0.30031304  0.35158130  0.80979586    -0.18600
C644        C  0.29844916  0.35459492  0.67433479    -0.18600
H645        H  0.13869997  0.31644269  0.70839103     0.14300
H646        H  0.13902121  0.31684822  0.77871645     0.14300
H647        H  0.32452774  0.40413272  0.70795746     0.14300
H648        H  0.32797815  0.40152147  0.78048852     0.14300
H649        H  0.21047363  0.37187674  0.61484141     0.12600
H650        H  0.26619283  0.38398397  0.61801307     0.12600
H651        H  0.21274601  0.36922091  0.86998811     0.12600
H652        H  0.26837199  0.38264350  0.86604534     0.12600
H653        H  0.22461607  0.33986866  0.74261905     0.25800
H654        H  0.28226485  0.32565001  0.74110679     0.25800
C655        C  0.13231058  0.36346084  0.87132344     0.86200
C656        C  0.11062563  0.34148017  0.85486908    -0.54100
C657        C  0.12134543  0.31364672  0.84846053     0.09100
C658        C  0.15470674  0.31097311  0.85692274     0.20000
C659        C  0.14578801  0.34754037  0.90545064    -0.54800
C660        C  0.15768168  0.31954425  0.89845375     0.09200
C661        C  0.15786250  0.36354199  0.84342061    -0.54300
C662        C  0.16980006  0.33637153  0.83625993     0.09800
H663        H  0.08781705  0.34782730  0.84895284     0.14300
H664        H  0.16347596  0.28950606  0.84851701     0.00000
H665        H  0.14390178  0.35735483  0.93279184     0.14600
H666        H  0.16689917  0.38288756  0.83049046     0.14400
C667        C  0.12923406  0.37188450  0.61666364     0.86200
C668        C  0.15641447  0.37096016  0.64280213    -0.54100
C669        C  0.16583778  0.34314001  0.65171251     0.09100
C670        C  0.14678777  0.31857583  0.63442580     0.20000
C671        C  0.13929070  0.35247344  0.58334148    -0.54800
C672        C  0.14916041  0.32417637  0.59200830     0.09200
C673        C  0.10594618  0.35361751  0.63563601    -0.54300
C674        C  0.11439618  0.32609422  0.64540609     0.09800
H675        H  0.16829892  0.39015064  0.65261348     0.14300
H676        H  0.15325784  0.29671299  0.64468675     0.00000
H677        H  0.13761542  0.36072443  0.55549912     0.14600
H678        H  0.08392617  0.36240278  0.64175106     0.14400
C679        C  0.37010007  0.13884938  0.61996307     0.86200
C680        C  0.34179480  0.13992925  0.64347868    -0.54100
C681        C  0.33152399  0.16784791  0.65135090     0.09100
C682        C  0.35042132  0.19262086  0.63347417     0.20000
C683        C  0.36159567  0.15636549  0.58485192    -0.54800
C684        C  0.35206788  0.18491873  0.59098557     0.09200
C685        C  0.39125676  0.15833812  0.64160797    -0.54300
C686        C  0.38247604  0.18684226  0.64780312     0.09800
H687        H  0.33071574  0.12066674  0.65402145     0.14300
H688        H  0.34129014  0.21489805  0.63933483     0.00000
H689        H  0.36451053  0.14712720  0.55728120     0.14600
H690        H  0.41230206  0.14955699  0.65155546     0.14400
C691        C  0.37103572  0.12662493  0.87324443     0.86200
C692        C  0.39416112  0.14299560  0.85121998    -0.54100
C693        C  0.38613438  0.17024305  0.84040650     0.09100
C694        C  0.35433492  0.17942822  0.85306241     0.20000
C695        C  0.36421358  0.14842567  0.90625507    -0.54800
C696        C  0.35489478  0.17666105  0.89606748     0.09200
C697        C  0.34239689  0.12754404  0.85004590    -0.54300
C698        C  0.33413510  0.15499208  0.83845315     0.09800
H699        H  0.41597730  0.13373254  0.84496931     0.14300
H700        H  0.34508902  0.19996993  0.84202070     0.00000
H701        H  0.36744431  0.14243727  0.93489577     0.14600
H702        H  0.32979901  0.10803627  0.84289226     0.14400
C703        C  0.02644122  0.26642156  0.73170103     0.02000
C704        C  0.02696137  0.25962208  0.76987902     0.01900
C705        C  0.50201326  0.24352583  0.78715624    -0.18600
C706        C  0.47649419  0.23730383  0.76640920     0.02000
C707        C  0.47579053  0.24461250  0.72838265     0.01900
C708        C  0.49984749  0.25901383  0.71261680    -0.18600
H709        H  0.49913357  0.26463774  0.68346209     0.04000
H710        H  0.50306923  0.23704281  0.81598426     0.04000
N711        N  0.29726435  0.16790267  0.74584055    -0.36900
N712        N  0.25226249  0.16809636  0.68726366    -0.57500
N713        N  0.20671523  0.15877877  0.74669244    -0.36900
N714        N  0.25451984  0.15939279  0.80479499    -0.57500
C715        C  0.31355625  0.17644617  0.71627328     0.26700
C716        C  0.31428143  0.17203699  0.77655008     0.26700
C717        C  0.19640361  0.14499193  0.71551647     0.26700
C718        C  0.19658722  0.14315523  0.77613198     0.26700
C719        C  0.27726360  0.16631534  0.66629384     0.35300
C720        C  0.22959656  0.15903515  0.66524899     0.35300
C721        C  0.27980554  0.15307642  0.82364996     0.35300
C722        C  0.23192745  0.14976968  0.82594377     0.35300
C723        C  0.34063810  0.18605537  0.72851737    -0.22200
C724        C  0.34061931  0.18460971  0.76609888    -0.22200
C725        C  0.18224916  0.11931525  0.72539246    -0.22200
C726        C  0.18273693  0.11805320  0.76329388    -0.22200
C727        C  0.27069807  0.15627095  0.63118368    -0.23300
C728        C  0.24117368  0.15058786  0.63094807    -0.23300
C729        C  0.27337115  0.13927880  0.85650484    -0.23300
C730        C  0.24346381  0.13628754  0.85722833    -0.23300
C731        C  0.30638277  0.17215176  0.67844302    -0.18600
C732        C  0.30858593  0.16052425  0.81228069    -0.18600
C733        C  0.20185089  0.14896907  0.81443782    -0.18600
C734        C  0.20011488  0.15380517  0.67794317    -0.18600
H735        H  0.35943916  0.19181740  0.71237475     0.14300
H736        H  0.35890330  0.19115535  0.78282134     0.14300
H737        H  0.17355552  0.10248321  0.70706028     0.14300
H738        H  0.17559818  0.09970886  0.77955447     0.14300
H739        H  0.28598653  0.15091402  0.60894432     0.12600
H740        H  0.23178487  0.13689829  0.60967379     0.12600
H741        H  0.28843745  0.13113960  0.87745385     0.12600
H742        H  0.23255731  0.12302271  0.87717883     0.12600
H743        H  0.27778742  0.15588565  0.74450648     0.25800
H744        H  0.21823631  0.17862763  0.74793779     0.25800
C745        C  0.40779827  0.18803108  0.81973172    -0.06400
C746        C  0.41957778  0.21313586  0.83686764    -0.17600
C747        C  0.43890644  0.23139660  0.81799344     0.10800
C748        C  0.45195847  0.22130014  0.78454203    -0.06400
C749        C  0.44304510  0.19408816  0.76961073    -0.17600
C750        C  0.42024558  0.17809846  0.78565672     0.10800
S751        S  0.44417062  0.26788120  0.83688825    -0.32600
S752        S  0.40964155  0.14459897  0.76170306    -0.32600
H753        H  0.38157652  0.14168833  0.77758677     0.28800
H754        H  0.44817843  0.28132079  0.80228919     0.28800
H755        H  0.41387025  0.21866385  0.86521558     0.19400
H756        H  0.45377182  0.18522414  0.74500998     0.19400
C757        C  0.40487403  0.20797114  0.66410241    -0.06400
C758        C  0.43473564  0.20194189  0.65496021    -0.17600
C759        C  0.45797439  0.21367276  0.67513074     0.10800
C760        C  0.45190011  0.23441195  0.70350643    -0.06400
C761        C  0.42268201  0.24457258  0.70874667    -0.17600
C762        C  0.39901360  0.23224169  0.68856137     0.10800
S763        S  0.49456418  0.19912347  0.66496493    -0.32600
S764        S  0.36277749  0.24903760  0.69383472    -0.32600
H765        H  0.37228185  0.27553165  0.71052947     0.28800
H766        H  0.00600075  0.19764863  0.70077161     0.28800
H767        H  0.44029715  0.18635333  0.63298709     0.19400
H768        H  0.41843103  0.26170194  0.72932275     0.19400
C769        C  0.09441862  0.30870677  0.66972915    -0.06400
C770        C  0.07879413  0.32438907  0.69769761    -0.17600
C771        C  0.05645383  0.31132602  0.71801602     0.10800
C772        C  0.05111917  0.28104718  0.71302738    -0.06400
C773        C  0.06819472  0.26457682  0.68754627    -0.17600
C774        C  0.08966434  0.27810556  0.66567713     0.10800
S775        S  0.03421863  0.33507686  0.74756511    -0.32600
S776        S  0.10828238  0.25614432  0.63100689    -0.32600
H777        H  0.10783312  0.22977109  0.65135543     0.28800
H778        H  0.00737709  0.32041889  0.74131524     0.28800
H779        H  0.08309177  0.34758333  0.70274570     0.19400
H780        H  0.06374213  0.24127796  0.68361596     0.19400
C781        C  0.10034510  0.28995394  0.83611142    -0.06400
C782        C  0.07119110  0.29305950  0.84923911    -0.17600
C783        C  0.04718831  0.28468840  0.82763422     0.10800
C784        C  0.05198206  0.26822701  0.79462539    -0.06400
C785        C  0.08115975  0.25941386  0.78575398    -0.17600
C786        C  0.10553158  0.27001329  0.80618915     0.10800
S787        S  0.01180846  0.29968225  0.84183619    -0.32600
S788        S  0.14205321  0.25612651  0.79481761    -0.32600
H789        H  0.13493861  0.24503324  0.75936377     0.28800
H790        H  0.00080825  0.30416180  0.80591684     0.28800
H791        H  0.06684439  0.30612681  0.87406396     0.19400
H792        H  0.08482265  0.24464014  0.76237483     0.19400
C793        C  0.19566075  0.09636867  0.91656502    -0.06400
C794        C  0.20301756  0.09996055  0.95382637    -0.17600
C795        C  0.21289090  0.07591311  0.97482115     0.10800
C796        C  0.21646503  0.04744846  0.95741670    -0.06400
C797        C  0.21140669  0.04528010  0.91903627    -0.17600
C798        C  0.20167885  0.06916173  0.89858488     0.10800
S799        S  0.21634702  0.08231311  0.52232511    -0.32600
S800        S  0.19458182  0.06234675  0.85009643    -0.32600
H801        H  0.20159353  0.09087110  0.83908340     0.28800
H802        H  0.17337667  0.05456333  0.56981567     0.28800
H803        H  0.19780519  0.12077342  0.96765152     0.19400
H804        H  0.21286905  0.02416504  0.90473815     0.19400
C805        C  0.18025591  0.09746699  0.57323727    -0.06400
C806        C  0.16118033  0.08592783  0.53542604    -0.17600
C807        C  0.16852375  0.05284925  0.51574864     0.10800
C808        C  0.19632838  0.03145817  0.53305279    -0.06400
C809        C  0.21537011  0.04265588  0.57098411    -0.19200
C810        C  0.20736026  0.07539363  0.59130366     0.10800
S811        S  0.14555527  0.04334006  0.97544580    -0.32600
S812        S  0.22290768  0.08111452  0.63641947    -0.32600
H813        H  0.19702611  0.09434068  0.65021458     0.28800
H814        H  0.15942977  0.01564085  0.97056416     0.28800
H815        H  0.14230848  0.09843383  0.52569129     0.19400
H816        H  0.23326126  0.02912718  0.58177532     0.19400
C817        C  0.30113802  0.40894534  0.57129134    -0.06400
C818        C  0.27795932  0.39608604  0.55082182    -0.17600
C819        C  0.25538523  0.41357801  0.53579913     0.10800
C820        C  0.25924685  0.44423754  0.53388506    -0.06400
C821        C  0.28178316  0.45733918  0.55454409    -0.17600
C822        C  0.30114560  0.44028111  0.57559523     0.10800
S823        S  0.22103115  0.39611440  0.52430951    -0.32600
S824        S  0.32225208  0.46031432  0.60993086    -0.32600
H825        H  0.31893095  0.43868986  0.63728769     0.28800
H826        H  0.20275819  0.42364307  0.02818315     0.28800
H827        H  0.27607950  0.37235454  0.54859579     0.19400
H828        H  0.28329644  0.48123098  0.55572403     0.19400
C829        C  0.30590801  0.40747557  0.91575412    -0.06400
C830        C  0.31325855  0.43787040  0.91571420    -0.17600
C831        C  0.29775663  0.45865934  0.93697546     0.10800
C832        C  0.27068618  0.45070586  0.95285614    -0.06400
C833        C  0.26085119  0.42181440  0.94812067    -0.17600
C834        C  0.27947136  0.39951882  0.93425490     0.10800
S835        S  0.31447736  0.49430981  0.94383422    -0.32600
S836        S  0.26938056  0.36217978  0.94510480    -0.32600
H837        H  0.23868048  0.36699830  0.94184631     0.28800
H838        H  0.30126944  0.99762612  0.98123599     0.28800
H839        H  0.33177903  0.44606981  0.90022965     0.19400
H840        H  0.23893110  0.41643721  0.95715161     0.19400
C841        C  0.07183367  0.44902135  0.61829460    -0.06400
C842        C  0.06949693  0.42819343  0.58945911    -0.17600
C843        C  0.08977773  0.40479426  0.58512568     0.10800
C844        C  0.11450574  0.40232298  0.60959591    -0.06400
C845        C  0.11812345  0.42531322  0.63634860    -0.17600
C846        C  0.09686928  0.44806634  0.64140223     0.10800
S847        S  0.08031010  0.37631041  0.55167631    -0.32600
S848        S  0.10156408  0.47532733  0.67785235    -0.32600
H849        H  0.12767872  0.46332321  0.69313532     0.28800
H850        H  0.05997717  0.39307491  0.53078429     0.28800
H851        H  0.05020191  0.42901460  0.57164637     0.19400
H852        H  0.13608981  0.42451448  0.65589228     0.19400
C853        C  0.04960086  0.07701017  0.62669216    -0.06400
C854        C  0.06690117  0.07840655  0.65911450    -0.17600
C855        C  0.08718414  0.10118775  0.66597191     0.10800
C856        C  0.09118872  0.12385610  0.63946234    -0.06400
C857        C  0.07102399  0.12397485  0.60901928    -0.17600
C858        C  0.05040914  0.10135297  0.60270433     0.10800
S859        S  0.10807883  0.09975382  0.70856554    -0.32600
S860        S  0.02586255  0.10499762  0.56357139    -0.32600
H861        H  0.00158369  0.09239452  0.58154955     0.28800
H862        H  0.09960439  0.07150748  0.72005248     0.28800
H863        H  0.06528818  0.06073259  0.67893257     0.19400
H864        H  0.07281160  0.14039335  0.58765408     0.19400
C865        C  0.38636118  0.10900360  0.61363365    -0.06400
C866        C  0.38183449  0.08523086  0.63829672    -0.17600
C867        C  0.40210181  0.06140488  0.64100815     0.10800
C868        C  0.42748438  0.06068384  0.61837649    -0.06400
C869        C  0.43110858  0.08302105  0.59233648    -0.17600
C870        C  0.41191976  0.10736340  0.59034981     0.10800
S871        S  0.39469231  0.03290465  0.67411663    -0.32600
S872        S  0.42336780  0.13744883  0.56094277    -0.32600
H873        H  0.44996902  0.12501061  0.54736827     0.28800
H874        H  0.40633740  0.00970567  0.65207778     0.28800
H875        H  0.36357739  0.08568352  0.65753846     0.19400
H876        H  0.45054469  0.08235705  0.57483944     0.19400
C877        C  0.44758088  0.43471057  0.62080715    -0.06400
C878        C  0.42574628  0.43786257  0.64805447    -0.17600
C879        C  0.40209020  0.41846326  0.65067930     0.10800
C880        C  0.40034733  0.39339982  0.62649433    -0.06400
C881        C  0.42361425  0.38962099  0.60027266    -0.17600
C882        C  0.44706959  0.40966162  0.59745314     0.10800
S883        S  0.37373563  0.42864563  0.68363806    -0.32600
S884        S  0.47554991  0.40194254  0.56362561    -0.32600
H885        H  0.49859413  0.41515623  0.58386622     0.28800
H886        H  0.37947989  0.45912118  0.68535246     0.28800
H887        H  0.42643465  0.45675816  0.66670090     0.19400
H888        H  0.42311896  0.37205389  0.57990079     0.19400
C889        C  0.09875990  0.11318134  0.86238576    -0.06400
C890        C  0.07710796  0.11588326  0.89096595    -0.17600
C891        C  0.05513814  0.09457856  0.89640145     0.10800
C892        C  0.05419897  0.06968407  0.87285405    -0.06400
C893        C  0.07390623  0.06790114  0.84300443    -0.17600
C894        C  0.09670934  0.08801656  0.83846901     0.10800
S895        S  0.02944484  0.10011469  0.93413139    -0.32600
S896        S  0.12514015  0.07749947  0.80565669    -0.32600
H897        H  0.11434978  0.04982004  0.79434837     0.28800
H898        H  0.00522306  0.08720258  0.91580293     0.28800
H899        H  0.07838309  0.13332603  0.91150912     0.19400
H900        H  0.07296653  0.04889249  0.82460828     0.19400
C901        C  0.07372498  0.44102205  0.87739085    -0.06400
C902        C  0.07118499  0.41817579  0.90309019    -0.17600
C903        C  0.09097755  0.39408720  0.90350470     0.10800
C904        C  0.11526277  0.39287988  0.87835154    -0.06400
C905        C  0.11894853  0.41742798  0.85465579    -0.17600
C906        C  0.09853060  0.44111947  0.85381799     0.10800
S907        S  0.08194209  0.36353553  0.93324924    -0.32600
S908        S  0.10526881  0.47065970  0.82181778    -0.32600
H909        H  0.09200045  0.49302028  0.84371439     0.28800
H910        H  0.06445508  0.37995147  0.95850505     0.28800
H911        H  0.05215852  0.41806921  0.92133367     0.19400
H912        H  0.13672025  0.41814102  0.83488586     0.19400
C913        C  0.40395725  0.38479813  0.86193551    -0.06400
C914        C  0.42123025  0.38557592  0.89497932    -0.17600
C915        C  0.44321801  0.40663984  0.90150722     0.10800
C916        C  0.44911493  0.42781623  0.87434281    -0.06400
C917        C  0.43380302  0.42587766  0.84044046    -0.17600
C918        C  0.41113011  0.40563022  0.83411038     0.10800
S919        S  0.46176759  0.40597746  0.94573297    -0.32600
S920        S  0.39026726  0.41024215  0.79175242    -0.32600
H921        H  0.41044835  0.42787230  0.77252906     0.28800
H922        H  0.49001036  0.41086376  0.93073874     0.28800
H923        H  0.41580837  0.37144950  0.91791499     0.19400
H924        H  0.43805109  0.44204738  0.81930144     0.19400
C925        C  0.38429362  0.09543645  0.87928851    -0.06400
C926        C  0.39878979  0.08911004  0.91288324    -0.17600
C927        C  0.42063149  0.06685080  0.91534103     0.10800
C928        C  0.42905718  0.05024026  0.88327476    -0.06400
C929        C  0.41232827  0.05406859  0.85101980    -0.17600
C930        C  0.39038319  0.07614873  0.84831336     0.10800
S931        S  0.43798183  0.06248831  0.95995439    -0.32600
S932        S  0.37319138  0.08076145  0.80324491    -0.32600
H933        H  0.38982870  0.05955148  0.78320628     0.28800
H934        H  0.43030551  0.03249921  0.96202425     0.28800
H935        H  0.39494344  0.10277674  0.93712385     0.19400
H936        H  0.41755577  0.04051457  0.82696584     0.19400
O937        O  0.03587705  0.97397926  0.41020408    -0.74700
O938        O  0.46691980  0.52027764  0.40925883    -0.74800
O939        O  0.47731170  0.96202736  0.40861904    -0.74800
O940        O  0.02645768  0.53117928  0.40746518    -0.74900
O941        O  0.02373305  0.53133087  0.34578424    -0.74800
O942        O  0.47840440  0.96340481  0.34703015    -0.74800
O943        O  0.46609783  0.51921714  0.34773296    -0.74800
O944        O  0.03636846  0.97518595  0.34844794    -0.74800
Ni945      Ni  0.50095286  0.49514020  0.41114219     1.25400
Ni946      Ni  0.00062990  0.99945551  0.34764786     1.25400
C947        C  0.04727792  0.96595332  0.37926941     0.87400
C948        C  0.45475370  0.52788556  0.37888267     0.87400
C949        C  0.46972411  0.95135945  0.37672633     0.87400
C950        C  0.03306561  0.54261717  0.37596621     0.87600
O951        O  0.03498174  0.98099994  0.09172880    -0.74700
O952        O  0.46495201  0.53146663  0.08880422    -0.74800
O953        O  0.02119073  0.54145242  0.09765822    -0.74800
O954        O  0.47460446  0.97161746  0.09075307    -0.74900
O955        O  0.47391291  0.97115199  0.15250724    -0.74800
O956        O  0.02094107  0.53930040  0.15921755    -0.74800
O957        O  0.46261106  0.53024316  0.15045368    -0.74800
O958        O  0.03466967  0.97951940  0.15337698    -0.74800
Ni959      Ni  0.49882655  0.50628708  0.08727614     1.25400
Ni960      Ni  0.49782826  0.50491154  0.15326049     1.25400
C961        C  0.04603804  0.97152852  0.12201906     0.87400
C962        C  0.45270291  0.53965251  0.11911959     0.87400
C963        C  0.02856796  0.55224007  0.12952736     0.87400
C964        C  0.46592838  0.96017714  0.12133278     0.87600
N965        N  0.15493016  0.70030427  0.49766745    -0.36900
N966        N  0.15500875  0.74414555  0.43893936    -0.57500
N967        N  0.15584691  0.79090352  0.49690455    -0.36900
N968        N  0.15270230  0.74587710  0.05559663    -0.57500
C969        C  0.14791086  0.68359540  0.46756906     0.26700
C970        C  0.14544128  0.68510051  0.02752510     0.26700
C971        C  0.16360879  0.80675521  0.46680481     0.26700
C972        C  0.16035234  0.80739832  0.02935047     0.26700
C973        C  0.16347486  0.71921730  0.42029586     0.35300
C974        C  0.16559547  0.76724261  0.41965817     0.35300
C975        C  0.16077265  0.72153219  0.07459412     0.35300
C976        C  0.16133743  0.76926862  0.07623601     0.35300
C977        C  0.13494128  0.65763447  0.47920756    -0.22200
C978        C  0.13152282  0.65948327  0.01612178    -0.22200
C979        C  0.17628775  0.83302133  0.47826606    -0.22200
C980        C  0.17438739  0.83300493  0.01948256    -0.22200
C981        C  0.18005368  0.72631742  0.38962365    -0.23300
C982        C  0.18266181  0.75657264  0.39035789    -0.23300
C983        C  0.17565781  0.72925189  0.10669246    -0.23300
C984        C  0.17705102  0.75957970  0.10695518    -0.23300
C985        C  0.15558740  0.69029195  0.43046163    -0.18600
C986        C  0.15203178  0.69290184  0.06463902    -0.18600
C987        C  0.15552591  0.79896847  0.06661648    -0.18600
C988        C  0.16096597  0.79759804  0.42926262    -0.18600
H989        H  0.12754877  0.63929058  0.46227715     0.14300
H990        H  0.12146288  0.64314274  0.03353225     0.14300
H991        H  0.18632245  0.84957630  0.46105975     0.14300
H992        H  0.18337678  0.84927309  0.03826301     0.14300
H993        H  0.19060867  0.71122047  0.37012886     0.12600
H994        H  0.19703939  0.76903270  0.37253586     0.12600
H995        H  0.18515720  0.71457746  0.12712539     0.12600
H996        H  0.18935236  0.77277396  0.12669692     0.12600
H997        H  0.16778145  0.71926661  0.49752998     0.25800
H998        H  0.14432659  0.77113510  0.49659879     0.25800
C999        C  0.37280913  0.86998750  0.36416866     0.86200
C1000       C  0.37210952  0.84132784  0.38623381    -0.54100
C1001       C  0.34447814  0.83283667  0.39600207     0.09100
C1002       C  0.31951439  0.85352955  0.38177475     0.20000
C1003       C  0.35257448  0.86295717  0.33042950    -0.54800
C1004       C  0.32372079  0.85600364  0.33927316     0.09200
C1005       C  0.35516796  0.89230217  0.38759306    -0.54300
C1006       C  0.32697121  0.88481917  0.39685632     0.09800
H1007       H  0.39174456  0.82912019  0.39483339     0.14300
H1008       H  0.29820179  0.84417488  0.38913976     0.00000
H1009       H  0.36065495  0.86176430  0.30227372     0.14600
H1010       H  0.36581543  0.91222246  0.39724752     0.14400
C1011       C  0.36654074  0.87879612  0.11884808     0.86200
C1012       C  0.34636667  0.89967325  0.09718127    -0.54100
C1013       C  0.31858592  0.88976540  0.09049257     0.09100
C1014       C  0.31407797  0.85788325  0.10378360     0.20000
C1015       C  0.34826204  0.86967154  0.15341886    -0.54800
C1016       C  0.31967124  0.86033166  0.14605438     0.09200
C1017       C  0.36725209  0.85042989  0.09511623    -0.54300
C1018       C  0.33995424  0.83942076  0.08723637     0.09800
H1019       H  0.35403664  0.92080782  0.08731037     0.14300
H1020       H  0.29286574  0.84784549  0.09572313     0.00000
H1021       H  0.35761400  0.87060872  0.18103671     0.14600
H1022       H  0.38719386  0.83986294  0.08448023     0.14400
C1023       C  0.12142860  0.63697633  0.13322538     0.86200
C1024       C  0.13736352  0.61232614  0.11161554    -0.54100
C1025       C  0.16427010  0.61918976  0.09837735     0.09100
C1026       C  0.17381818  0.65065367  0.10809519     0.20000
C1027       C  0.14398622  0.64607207  0.16379860    -0.54800
C1028       C  0.17258987  0.65135412  0.15134516     0.09200
C1029       C  0.12139529  0.66387309  0.10773154    -0.54300
C1030       C  0.14843931  0.67062243  0.09417816     0.09800
H1031       H  0.12769492  0.59072002  0.10663192     0.14300
H1032       H  0.19382895  0.65800769  0.09408444     0.00000
H1033       H  0.13790650  0.64908057  0.19252746     0.14600
H1034       H  0.10163902  0.67631176  0.10010571     0.14400
C1035       C  0.12688875  0.62796001  0.36719864     0.86200
C1036       C  0.12601060  0.65658845  0.39047927    -0.54100
C1037       C  0.15307972  0.66655004  0.40122844     0.09100
C1038       C  0.17926442  0.64740982  0.38619406     0.20000
C1039       C  0.14683510  0.63641928  0.33387655    -0.54800
C1040       C  0.17540307  0.64500390  0.34309770     0.09200
C1041       C  0.14560127  0.60641243  0.38962405    -0.54300
C1042       C  0.17282209  0.61580828  0.39899500     0.09800
H1043       H  0.10587928  0.66801725  0.39900181     0.14300
H1044       H  0.20045066  0.65635602  0.39640466     0.00000
H1045       H  0.13863461  0.63570529  0.30570427     0.14600
H1046       H  0.13814033  0.58438625  0.39668826     0.14400
C1047       C  0.23762926  0.96435864  0.01016241     0.02000
C1048       C  0.25079161  0.97028094  0.47466377     0.01900
C1049       C  0.23930221  0.49587149  0.45743802    -0.18600
C1050       C  0.22188683  0.51686332  0.47676132     0.02000
C1051       C  0.21401407  0.51118663  0.01145041     0.01900
C1052       C  0.22282266  0.48490852  0.02813562    -0.18600
H1053       H  0.21642046  0.48058859  0.05655396     0.04000
H1054       H  0.24685374  0.50028771  0.42963538     0.04000
N1055       N  0.33360657  0.80216495  0.49177534    -0.36900
N1056       N  0.34141104  0.75476766  0.43399837    -0.57500
N1057       N  0.34908957  0.71139284  0.49160472    -0.36900
N1058       N  0.33610472  0.76084364  0.05147204    -0.57500
C1059       C  0.33729708  0.81904830  0.46145689     0.26700
C1060       C  0.33046980  0.82276196  0.02235172     0.26700
C1061       C  0.34244124  0.69411345  0.46154192     0.26700
C1062       C  0.33977847  0.69957682  0.02335984     0.26700
C1063       C  0.34355959  0.77940006  0.41281362     0.35300
C1064       C  0.35013208  0.73129794  0.41240278     0.35300
C1065       C  0.34356603  0.78586200  0.07004264     0.35300
C1066       C  0.35062458  0.73852964  0.06862084     0.35300
C1067       C  0.34051667  0.84822603  0.47246277    -0.22200
C1068       C  0.33145557  0.85165980  0.01049515    -0.22200
C1069       C  0.32912456  0.66858914  0.47406539    -0.22200
C1070       C  0.32594883  0.67378818  0.01232556    -0.22200
C1071       C  0.35299352  0.77178644  0.37786772    -0.23300
C1072       C  0.35825965  0.74230623  0.37806908    -0.23300
C1073       C  0.36272733  0.77937207  0.09877537    -0.23300
C1074       C  0.36822831  0.74975088  0.09641115    -0.23300
C1075       C  0.34014239  0.80928194  0.42428389    -0.18600
C1076       C  0.33573652  0.81483269  0.05967775    -0.18600
C1077       C  0.34650983  0.70823486  0.06061905    -0.18600
C1078       C  0.34922437  0.70066288  0.42347148    -0.18600
H1079       H  0.34722878  0.86672013  0.45635247     0.14300
H1080       H  0.33466504  0.87144307  0.02664249     0.14300
H1081       H  0.32029844  0.65076304  0.45734150     0.14300
H1082       H  0.31609031  0.65744869  0.03000925     0.14300
H1083       H  0.35769479  0.78618622  0.35489541     0.12600
H1084       H  0.36839161  0.73227930  0.35466739     0.12600
H1085       H  0.37360213  0.79446025  0.11764223     0.12600
H1086       H  0.38482349  0.73821658  0.11167999     0.12600
H1087       H  0.33119461  0.77942328  0.49187976     0.25800
H1088       H  0.36121188  0.73086468  0.49117829     0.25800
N1089       N  0.20197322  0.83196936  0.24507374    -0.36900
N1090       N  0.24435052  0.83798636  0.18493107    -0.57500
N1091       N  0.29289118  0.84467797  0.24295289    -0.36900
N1092       N  0.24654250  0.83777232  0.30287534    -0.57500
C1093       C  0.18505663  0.82485755  0.21537158     0.26700
C1094       C  0.18545982  0.82669510  0.27548610     0.26700
C1095       C  0.30196470  0.86036664  0.21323790     0.26700
C1096       C  0.30377629  0.85882112  0.27340964     0.26700
C1097       C  0.21830114  0.84335647  0.16694640     0.35300
C1098       C  0.26565405  0.85143792  0.16499126     0.35300
C1099       C  0.22138881  0.84375979  0.32240095     0.35300
C1100       C  0.26891119  0.85012550  0.32242850     0.35300
C1101       C  0.15851732  0.81368436  0.22730740    -0.22200
C1102       C  0.15816742  0.81630378  0.26478878    -0.22200
C1103       C  0.31563028  0.88580263  0.22529606    -0.22200
C1104       C  0.31712189  0.88473496  0.26309646    -0.22200
C1105       C  0.22310045  0.86008980  0.13587232    -0.23300
C1106       C  0.25247528  0.86652620  0.13616588    -0.23300
C1107       C  0.22769821  0.86026032  0.35373394    -0.23300
C1108       C  0.25732862  0.86559054  0.35234717    -0.23300
C1109       C  0.18995042  0.83468436  0.17910845    -0.18600
C1110       C  0.19259970  0.83521088  0.31191361    -0.18600
C1111       C  0.29884968  0.85154001  0.31081210    -0.18600
C1112       C  0.29588405  0.85434856  0.17546359    -0.18600
H1113       H  0.14029461  0.80623300  0.21105808     0.14300
H1114       H  0.13893297  0.81302997  0.28152954     0.14300
H1115       H  0.32127013  0.90443563  0.20862676     0.14300
H1116       H  0.32472941  0.90223851  0.28123550     0.14300
H1117       H  0.20700140  0.86893856  0.11662630     0.12600
H1118       H  0.26214885  0.88330125  0.11973102     0.12600
H1119       H  0.21239295  0.86949978  0.37391753     0.12600
H1120       H  0.26848185  0.88162740  0.36912639     0.12600
H1121       H  0.22120813  0.84437764  0.24459143     0.25800
H1122       H  0.28128419  0.82486319  0.24242464     0.25800
C1123       C  0.12930329  0.86533351  0.37308895     0.86200
C1124       C  0.10795366  0.84393781  0.35451900    -0.54100
C1125       C  0.11859730  0.81604374  0.34811273     0.09100
C1126       C  0.15167511  0.81306880  0.35772033     0.20000
C1127       C  0.14139780  0.84829680  0.40725145    -0.54800
C1128       C  0.15330824  0.82039843  0.39964060     0.09200
C1129       C  0.15595325  0.86595671  0.34678613    -0.54300
C1130       C  0.16766649  0.83884669  0.33871694     0.09800
H1131       H  0.08521222  0.85037172  0.34833731     0.14300
H1132       H  0.16058187  0.79190123  0.34865843     0.00000
H1133       H  0.13863934  0.85720113  0.43498932     0.14600
H1134       H  0.16566333  0.88561815  0.33543445     0.14400
C1135       C  0.12620832  0.86957908  0.12081451     0.86200
C1136       C  0.15356051  0.86850743  0.14680282    -0.54100
C1137       C  0.16316458  0.84056685  0.15538076     0.09100
C1138       C  0.14387303  0.81616196  0.13819125     0.20000
C1139       C  0.13643967  0.85031830  0.08735021    -0.54800
C1140       C  0.14606976  0.82194916  0.09583322     0.09200
C1141       C  0.10300999  0.85131752  0.13989062    -0.54300
C1142       C  0.11173319  0.82394891  0.14972021     0.09800
H1143       H  0.16531346  0.88785491  0.15650542     0.14300
H1144       H  0.14993154  0.79405128  0.14803951     0.00000
H1145       H  0.13586494  0.85877928  0.05951734     0.14600
H1146       H  0.08113263  0.86010030  0.14682319     0.14400
C1147       C  0.37014619  0.63976032  0.11975563     0.86200
C1148       C  0.34181294  0.64016396  0.14330150    -0.54100
C1149       C  0.33103715  0.66784238  0.15144074     0.09100
C1150       C  0.34960809  0.69307581  0.13405914     0.20000
C1151       C  0.36127478  0.65741945  0.08492104    -0.54800
C1152       C  0.35116155  0.68572902  0.09153549     0.09200
C1153       C  0.39102417  0.65942419  0.14160398    -0.54300
C1154       C  0.38194147  0.68780148  0.14806742     0.09800
H1155       H  0.33096594  0.62064183  0.15346794     0.14300
H1156       H  0.34002026  0.71508400  0.14037451     0.00000
H1157       H  0.36431205  0.64845646  0.05722373     0.14600
H1158       H  0.41222308  0.65085645  0.15130460     0.14400
C1159       C  0.37081783  0.62522454  0.37080274     0.86200
C1160       C  0.39343351  0.64214144  0.34857815    -0.54100
C1161       C  0.38488219  0.66933684  0.33824111     0.09100
C1162       C  0.35324878  0.67806543  0.35210303     0.20000
C1163       C  0.36436474  0.64662225  0.40447461    -0.54800
C1164       C  0.35469113  0.67496660  0.39512229     0.09200
C1165       C  0.34187610  0.62610032  0.34811037    -0.54300
C1166       C  0.33312589  0.65365457  0.33739246     0.09800
H1167       H  0.41528548  0.63324608  0.34172104     0.14300
H1168       H  0.34325696  0.69844942  0.34177126     0.00000
H1169       H  0.36853651  0.64045538  0.43287287     0.14600
H1170       H  0.32976846  0.60645258  0.34016359     0.14400
C1171       C  0.02296302  0.76752468  0.23761969     0.02000
C1172       C  0.02382329  0.75890620  0.27524318     0.01900
C1173       C  0.50152504  0.74140892  0.28797847    -0.18600
C1174       C  0.47620541  0.73611023  0.26637729     0.02000
C1175       C  0.47566366  0.74497929  0.22896446     0.01900
C1176       C  0.50008416  0.75960613  0.21446758    -0.18600
H1177       H  0.49972465  0.76615006  0.18561839     0.04000
H1178       H  0.50221229  0.73361894  0.31628434     0.04000
N1179       N  0.29608320  0.66711300  0.24524499    -0.36900
N1180       N  0.25159626  0.66754465  0.18675439    -0.57500
N1181       N  0.20606371  0.65915953  0.24672318    -0.36900
N1182       N  0.25328603  0.65946455  0.30477110    -0.57500
C1183       C  0.31212199  0.67652735  0.21588553     0.26700
C1184       C  0.31279539  0.67175848  0.27606329     0.26700
C1185       C  0.19548882  0.64562757  0.21548394     0.26700
C1186       C  0.19542967  0.64376586  0.27613876     0.26700
C1187       C  0.27657823  0.66534931  0.16585618     0.35300
C1188       C  0.22881803  0.65878184  0.16485931     0.35300
C1189       C  0.27863126  0.65231908  0.32305513     0.35300
C1190       C  0.23063704  0.65012454  0.32611848     0.35300
C1191       C  0.33858395  0.68746554  0.22834638    -0.22200
C1192       C  0.33852532  0.68571155  0.26591846    -0.22200
C1193       C  0.18070357  0.62030402  0.22533368    -0.22200
C1194       C  0.18115043  0.61898551  0.26318770    -0.22200
C1195       C  0.26998774  0.65520760  0.13081482    -0.23300
C1196       C  0.24030233  0.65010392  0.13050628    -0.23300
C1197       C  0.27221587  0.63828867  0.35574372    -0.23300
C1198       C  0.24218179  0.63611481  0.35706456    -0.23300
C1199       C  0.30552634  0.67164380  0.17808256    -0.18600
C1200       C  0.30743851  0.65948306  0.31147521    -0.18600
C1201       C  0.20052933  0.64933284  0.31458809    -0.18600
C1202       C  0.19926849  0.65438635  0.17785219    -0.18600
H1203       H  0.35712855  0.69412552  0.21228141     0.14300
H1204       H  0.35646027  0.69301356  0.28277112     0.14300
H1205       H  0.17153509  0.60371750  0.20701515     0.14300
H1206       H  0.17371491  0.60074831  0.27940534     0.14300
H1207       H  0.28527649  0.64970078  0.10862421     0.12600
H1208       H  0.23073493  0.63668690  0.10909708     0.12600
H1209       H  0.28740533  0.62940449  0.37608117     0.12600
H1210       H  0.23114400  0.62273997  0.37688675     0.12600
H1211       H  0.27721856  0.65413499  0.24378203     0.25800
H1212       H  0.21804781  0.67872950  0.24798704     0.25800
C1213       C  0.40616100  0.68744894  0.31737722    -0.06400
C1214       C  0.41809108  0.71228226  0.33489629    -0.17600
C1215       C  0.43767190  0.73043321  0.31640022     0.10800
C1216       C  0.45118847  0.72024135  0.28337462    -0.06400
C1217       C  0.44189464  0.69344682  0.26769351    -0.17600
C1218       C  0.41849305  0.67785196  0.28302847     0.10800
S1219       S  0.44217994  0.76717694  0.33471468    -0.32600
S1220       S  0.40675839  0.64548134  0.25762553    -0.32600
H1221       H  0.37890062  0.64288751  0.27412463     0.28800
H1222       H  0.44775694  0.78022010  0.30022233     0.28800
H1223       H  0.41226117  0.71774773  0.36321419     0.19400
H1224       H  0.45262432  0.68474790  0.24300694     0.19400
C1225       C  0.40447620  0.70927800  0.16381630    -0.06400
C1226       C  0.43439408  0.70324565  0.15470732    -0.17600
C1227       C  0.45766071  0.71481988  0.17510679     0.10800
C1228       C  0.45172908  0.73567043  0.20333162    -0.06400
C1229       C  0.42252746  0.74608852  0.20827281    -0.17600
C1230       C  0.39872120  0.73359722  0.18828988     0.10800
S1231       S  0.49411999  0.69951767  0.16628135    -0.32600
S1232       S  0.36245886  0.75045915  0.19326855    -0.32600
H1233       H  0.36926237  0.76942087  0.22315386     0.28800
H1234       H  0.00233500  0.69898009  0.20249114     0.28800
H1235       H  0.43998923  0.68756308  0.13286254     0.19400
H1236       H  0.41845119  0.76350828  0.22849333     0.19400
C1237       C  0.09245741  0.80698197  0.17494202    -0.06400
C1238       C  0.08036580  0.82214361  0.20583911    -0.17600
C1239       C  0.05763497  0.81016346  0.22672263     0.10800
C1240       C  0.04828033  0.78120722  0.21868805    -0.06400
C1241       C  0.06176253  0.76521545  0.18948793    -0.17600
C1242       C  0.08343121  0.77796248  0.16713739     0.10800
S1243       S  0.03984648  0.83409056  0.26045506    -0.32600
S1244       S  0.09714000  0.75808427  0.12701321    -0.32600
H1245       H  0.08418186  0.73081262  0.13519789     0.28800
H1246       H  0.01126788  0.82290723  0.25494648     0.28800
H1247       H  0.08742685  0.84442780  0.21227356     0.19400
H1248       H  0.05416502  0.74312317  0.18318116     0.19400
C1249       C  0.09745463  0.79180780  0.33779099    -0.06400
C1250       C  0.06857843  0.79504330  0.35180753    -0.17600
C1251       C  0.04430595  0.78430308  0.33250010     0.10800
C1252       C  0.04882262  0.76686888  0.30023400    -0.06400
C1253       C  0.07788865  0.75782350  0.29130983    -0.17600
C1254       C  0.10245712  0.76967766  0.31022105     0.10800
S1255       S  0.00868085  0.79754588  0.34824853    -0.32600
S1256       S  0.13884315  0.75472694  0.30004731    -0.32600
H1257       H  0.13070437  0.73671680  0.26979467     0.28800
H1258       H  0.99658404  0.80173077  0.31281826     0.28800
H1259       H  0.06446767  0.80934099  0.37560281     0.19400
H1260       H  0.08124687  0.74222334  0.26870445     0.19400
C1261       C  0.19359965  0.59449821  0.41598603    -0.06400
C1262       C  0.20068809  0.59794644  0.45337318    -0.17600
C1263       C  0.21077465  0.57393692  0.47439630     0.10800
C1264       C  0.21372618  0.54525053  0.45737707    -0.06400
C1265       C  0.20782740  0.54292628  0.41913735    -0.17600
C1266       C  0.19914315  0.56706711  0.39830784     0.10800
S1267       S  0.21663474  0.58429072  0.02447573    -0.32600
S1268       S  0.19333019  0.56065212  0.34943330    -0.32600
H1269       H  0.20084430  0.58927258  0.33898912     0.28800
H1270       H  0.17490824  0.55404438  0.07157549     0.28800
H1271       H  0.19588255  0.61889567  0.46708375     0.19400
H1272       H  0.20860866  0.52172842  0.40500541     0.19400
C1273       C  0.18003840  0.59715273  0.07573367    -0.06400
C1274       C  0.16142532  0.58535963  0.03785515    -0.17600
C1275       C  0.17013393  0.55296583  0.01752094     0.10800
C1276       C  0.19879326  0.53256978  0.03437527    -0.06400
C1277       C  0.21745669  0.54405490  0.07241178    -0.19200
C1278       C  0.20807726  0.57610884  0.09336783     0.10800
S1279       S  0.14380063  0.53709612  0.48558070    -0.32600
S1280       S  0.22307315  0.58161643  0.13885930    -0.32600
H1281       H  0.19731567  0.59537013  0.15214411     0.28800
H1282       H  0.15719075  0.50895635  0.48325157     0.28800
H1283       H  0.14213180  0.59731346  0.02831773     0.19400
H1284       H  0.23587997  0.53111861  0.08294084     0.19400
C1285       C  0.29545687  0.90883597  0.07293554    -0.06400
C1286       C  0.27278762  0.89595625  0.05155879    -0.17600
C1287       C  0.25072167  0.91353905  0.03534359     0.10800
C1288       C  0.25446355  0.94431605  0.03445357    -0.06400
C1289       C  0.27602932  0.95723088  0.05687279    -0.17600
C1290       C  0.29474673  0.93995476  0.07842509     0.10800
S1291       S  0.21730319  0.89594106  0.02014201    -0.32600
S1292       S  0.31391149  0.95903451  0.11523863    -0.32600
H1293       H  0.30973887  0.93623274  0.14087534     0.28800
H1294       H  0.20211423  0.92122915  0.52663646     0.28800
H1295       H  0.27124374  0.87220433  0.04892311     0.19400
H1296       H  0.27736998  0.98110888  0.05880650     0.19400
C1297       C  0.30715347  0.90607905  0.41861866    -0.06400
C1298       C  0.31530719  0.93628040  0.42137515    -0.17600
C1299       C  0.29882311  0.95694857  0.44186882     0.10800
C1300       C  0.27068738  0.94924493  0.45473148    -0.06400
C1301       C  0.26093682  0.92046572  0.44869591    -0.17600
C1302       C  0.28004253  0.89814793  0.43569061     0.10800
S1303       S  0.31527139  0.99242357  0.45105013    -0.32600
S1304       S  0.26986248  0.86067864  0.44604428    -0.32600
H1305       H  0.23912646  0.86578746  0.44793403     0.28800
H1306       H  0.29902538  0.50021835  0.47267134     0.28800
H1307       H  0.33486924  0.94465723  0.40836243     0.19400
H1308       H  0.23856822  0.91521135  0.45607553     0.19400
C1309       C  0.07055243  0.94909726  0.11933862    -0.06400
C1310       C  0.06984183  0.92908138  0.08935532    -0.17600
C1311       C  0.08870914  0.90422045  0.08728526     0.10800
C1312       C  0.11160309  0.90022851  0.11418447    -0.06400
C1313       C  0.11312046  0.92169288  0.14315299    -0.17600
C1314       C  0.09290663  0.94560228  0.14619026     0.10800
S1315       S  0.07988927  0.87636314  0.05268720    -0.32600
S1316       S  0.09560867  0.97113674  0.18487540    -0.32600
H1317       H  0.12135438  0.95891260  0.20083372     0.28800
H1318       H  0.05258664  0.88817981  0.04074910     0.28800
H1319       H  0.05262221  0.93165648  0.06869940     0.19400
H1320       H  0.12849758  0.91863875  0.16567888     0.19400
C1321       C  0.04708501  0.57924452  0.13350694    -0.06400
C1322       C  0.06343967  0.58285717  0.16641664    -0.17600
C1323       C  0.08483152  0.60489877  0.17065574     0.10800
C1324       C  0.09030463  0.62480098  0.14130028    -0.06400
C1325       C  0.07097648  0.62305968  0.11017908    -0.17600
C1326       C  0.04992826  0.60078418  0.10592044     0.10800
S1327       S  0.10590924  0.60474215  0.21300435    -0.32600
S1328       S  0.02865702  0.60037558  0.06363788    -0.32600
H1329       H  0.00198309  0.59367289  0.08156313     0.28800
H1330       H  0.08458624  0.59055507  0.23469912     0.28800
H1331       H  0.06105561  0.56689122  0.18831038     0.19400
H1332       H  0.07420572  0.63709816  0.08652088     0.19400
C1333       C  0.38688935  0.61023035  0.11289621    -0.06400
C1334       C  0.38245645  0.58605381  0.13685619    -0.17600
C1335       C  0.40278717  0.56228222  0.13897072     0.10800
C1336       C  0.42833461  0.56201712  0.11663028    -0.06400
C1337       C  0.43178170  0.58466834  0.09089593    -0.17600
C1338       C  0.41253405  0.60911190  0.08971351     0.10800
S1339       S  0.39479904  0.53278546  0.17040527    -0.32600
S1340       S  0.42377494  0.63981209  0.06123930    -0.32600
H1341       H  0.45329919  0.63074240  0.05515255     0.28800
H1342       H  0.40664122  0.51024712  0.14745718     0.28800
H1343       H  0.36410874  0.58601959  0.15594239     0.19400
H1344       H  0.45088813  0.58409442  0.07285133     0.19400
C1345       C  0.44416757  0.93578511  0.12231427    -0.06400
C1346       C  0.42207847  0.93841715  0.14926343    -0.17600
C1347       C  0.39797687  0.91945767  0.15034129     0.10800
C1348       C  0.39618158  0.89498391  0.12529562    -0.06400
C1349       C  0.41964945  0.89153325  0.09928958    -0.17600
C1350       C  0.44330795  0.91154016  0.09747880     0.10800
S1351       S  0.36817668  0.93091222  0.18048725    -0.32600
S1352       S  0.47122674  0.90514893  0.06250773    -0.32600
H1353       H  0.49457642  0.91752107  0.08301334     0.28800
H1354       H  0.38560618  0.94592265  0.20681178     0.28800
H1355       H  0.42229135  0.95730036  0.16795861     0.19400
H1356       H  0.41905484  0.87441366  0.07830177     0.19400
C1357       C  0.09713016  0.61207691  0.36084248    -0.06400
C1358       C  0.07472697  0.61510038  0.38847472    -0.17600
C1359       C  0.05291934  0.59360183  0.39385173     0.10800
C1360       C  0.05345287  0.56775817  0.37198096    -0.06400
C1361       C  0.07395287  0.56544566  0.34304925    -0.17600
C1362       C  0.09562868  0.58662151  0.33732241     0.10800
S1363       S  0.02524596  0.60032957  0.42903883    -0.32600
S1364       S  0.12340018  0.57732034  0.30325749    -0.32600
H1365       H  0.10786948  0.55514999  0.28405334     0.28800
H1366       H  0.00237756  0.58530418  0.41053590     0.28800
H1367       H  0.07495319  0.63316909  0.40817513     0.19400
H1368       H  0.07416601  0.54561607  0.32597540     0.19400
C1369       C  0.07163500  0.94365423  0.38035284    -0.06400
C1370       C  0.06847018  0.92035649  0.40524825    -0.17600
C1371       C  0.08773830  0.89587812  0.40510302     0.10800
C1372       C  0.11235030  0.89478072  0.38044632    -0.06400
C1373       C  0.11651445  0.91960380  0.35729535    -0.17600
C1374       C  0.09652840  0.94369034  0.35692279     0.10800
S1375       S  0.07745860  0.86482775  0.43331779    -0.32600
S1376       S  0.10389102  0.97360829  0.32571286    -0.32600
H1377       H  0.09156168  0.99593467  0.34855969     0.28800
H1378       H  0.06022703  0.88105941  0.45904941     0.28800
H1379       H  0.04925224  0.92020133  0.42318078     0.19400
H1380       H  0.13429068  0.92019647  0.33750426     0.19400
C1381       C  0.40385321  0.88340435  0.35955199    -0.06400
C1382       C  0.42259125  0.88278274  0.39139798    -0.17600
C1383       C  0.44486691  0.90362449  0.39776463     0.10800
C1384       C  0.44929877  0.92603883  0.37179862    -0.06400
C1385       C  0.43270487  0.92537385  0.33883662    -0.17600
C1386       C  0.40985515  0.90536556  0.33269469     0.10800
S1387       S  0.46593432  0.90102413  0.44009103    -0.32600
S1388       S  0.38702566  0.91189048  0.29235603    -0.32600
H1389       H  0.40564035  0.93146537  0.27366777     0.28800
H1390       H  0.49303605  0.90813578  0.42337621     0.28800
H1391       H  0.41827675  0.86768090  0.41369720     0.19400
H1392       H  0.43600692  0.94247263  0.31859561     0.19400
C1393       C  0.38435342  0.59397420  0.37561693    -0.06400
C1394       C  0.39613352  0.58522455  0.40993160    -0.17600
C1395       C  0.41690044  0.56192673  0.41252463     0.10800
C1396       C  0.42783881  0.54767928  0.37982358    -0.06400
C1397       C  0.41358051  0.55392918  0.34636228    -0.17600
C1398       C  0.39174086  0.57610510  0.34380515     0.10800
S1399       S  0.42839802  0.55197127  0.45860656    -0.32600
S1400       S  0.37584215  0.58249155  0.29840829    -0.32600
H1401       H  0.39177688  0.56076217  0.27834242     0.28800
H1402       H  0.42313920  0.52169669  0.45253242     0.28800
H1403       H  0.39028094  0.59710439  0.43501448     0.19400
H1404       H  0.42038863  0.54201039  0.32158864     0.19400
O1405       O  0.03688107  0.97377510  0.91151806    -0.74700
O1406       O  0.47086665  0.52321420  0.91652620    -0.74800
O1407       O  0.47811919  0.96310243  0.90892130    -0.74800
O1408       O  0.02815863  0.53142184  0.90604973    -0.74900
O1409       O  0.02640924  0.53051699  0.84428994    -0.74800
O1410       O  0.47901016  0.96348260  0.84723291    -0.74800
O1411       O  0.46797248  0.52397544  0.85504949    -0.74800
O1412       O  0.03884244  0.97350862  0.84977997    -0.74800
Ni1413     Ni  0.50432550  0.49697342  0.91491313     1.25400
Ni1414     Ni  0.00292191  0.99752308  0.84625415     1.25400
C1415       C  0.04919001  0.96524328  0.88137985     0.87400
C1416       C  0.45805694  0.53219276  0.88711651     0.87400
C1417       C  0.47009047  0.95218739  0.87733530     0.87400
C1418       C  0.03540247  0.54220002  0.87441868     0.87600
O1419       O  0.03294061  0.97961237  0.58327340    -0.74700
O1420       O  0.46776953  0.52922350  0.58947811    -0.74800
O1421       O  0.02589927  0.54018189  0.59781903    -0.74800
O1422       O  0.47350816  0.97129859  0.58820880    -0.74900
O1423       O  0.47491422  0.97043328  0.64990592    -0.74800
O1424       O  0.02442022  0.53744470  0.65934205    -0.74800
O1425       O  0.46595363  0.52842455  0.65117358    -0.74800
O1426       O  0.03340333  0.97797012  0.64500341    -0.74800
Ni1427     Ni  0.50245016  0.50522199  0.58767152     1.25400
Ni1428     Ni  0.50151514  0.50354604  0.65370713     1.25400
C1429       C  0.04410757  0.96993335  0.61331407     0.87400
C1430       C  0.45554446  0.53732091  0.61985905     0.87400
C1431       C  0.03269783  0.55062468  0.63010883     0.87400
C1432       C  0.46583124  0.95966055  0.61916240     0.87600
N1433       N  0.15494176  0.69990997  0.99751558    -0.36900
N1434       N  0.15683355  0.74435310  0.94011832    -0.57500
N1435       N  0.15517731  0.79080698  0.99845327    -0.36900
N1436       N  0.15424859  0.74651659  0.55507376    -0.57500
C1437       C  0.14756000  0.68387343  0.96703906     0.26700
C1438       C  0.14665180  0.68528809  0.52819285     0.26700
C1439       C  0.16434008  0.80665980  0.96894547     0.26700
C1440       C  0.16200069  0.80771032  0.52723391     0.26700
C1441       C  0.16525863  0.71952217  0.92127825     0.35300
C1442       C  0.16787586  0.76748743  0.92136271     0.35300
C1443       C  0.16205079  0.72235135  0.57472874     0.35300
C1444       C  0.16286278  0.77026060  0.57519996     0.35300
C1445       C  0.13313892  0.65846026  0.97795653    -0.22200
C1446       C  0.13375819  0.65899531  0.51737291    -0.22200
C1447       C  0.17694887  0.83263958  0.98153171    -0.22200
C1448       C  0.17541299  0.83341192  0.51630654    -0.22200
C1449       C  0.18243017  0.72671221  0.89115233    -0.23300
C1450       C  0.18515740  0.75696159  0.89219945    -0.23300
C1451       C  0.17674038  0.73058230  0.60677473    -0.23300
C1452       C  0.17815427  0.76095505  0.60642295    -0.23300
C1453       C  0.15618176  0.69075080  0.93035201    -0.18600
C1454       C  0.15355379  0.69340000  0.56526123    -0.18600
C1455       C  0.15744747  0.79991217  0.56474636    -0.18600
C1456       C  0.16309158  0.79776239  0.93104485    -0.18600
H1457       H  0.12496370  0.64072338  0.96060329     0.14300
H1458       H  0.12475084  0.64238824  0.53523584     0.14300
H1459       H  0.18810293  0.84899090  0.96516184     0.14300
H1460       H  0.18459427  0.85006768  0.53436333     0.14300
H1461       H  0.19294937  0.71170133  0.87153005     0.12600
H1462       H  0.19949010  0.76956109  0.87448175     0.12600
H1463       H  0.18606189  0.71619043  0.62764280     0.12600
H1464       H  0.19028510  0.77439285  0.62605734     0.12600
H1465       H  0.16870395  0.71823868  0.99810066     0.25800
H1466       H  0.14363528  0.77105714  0.99730187     0.25800
C1467       C  0.37099277  0.87226012  0.86523149     0.86200
C1468       C  0.36982217  0.84417105  0.88839413    -0.54100
C1469       C  0.34194927  0.83537696  0.89662036     0.09100
C1470       C  0.31730966  0.85502283  0.87965216     0.20000
C1471       C  0.35246304  0.86414042  0.83029934    -0.54800
C1472       C  0.32346269  0.85668904  0.83747164     0.09200
C1473       C  0.35201012  0.89456663  0.88679400    -0.54300
C1474       C  0.32357667  0.88663755  0.89409787     0.09800
H1475       H  0.38908901  0.83217002  0.89844355     0.14300
H1476       H  0.29563634  0.84565626  0.88542318     0.00000
H1477       H  0.36161375  0.86408175  0.80256364     0.14600
H1478       H  0.36181641  0.91478430  0.89707056     0.14400
C1479       C  0.36839062  0.87637506  0.61922320     0.86200
C1480       C  0.34901738  0.89768450  0.59707932    -0.54100
C1481       C  0.32134943  0.88814215  0.58909195     0.09100
C1482       C  0.31589204  0.85632764  0.60207519     0.20000
C1483       C  0.34920263  0.86717690  0.65288777    -0.54800
C1484       C  0.32057551  0.85859423  0.64442451     0.09200
C1485       C  0.36920237  0.84807221  0.59537005    -0.54300
C1486       C  0.34189851  0.83738441  0.58660287     0.09800
H1487       H  0.35699188  0.91899441  0.58815973     0.14300
H1488       H  0.29454884  0.84678241  0.59345559     0.00000
H1489       H  0.35800842  0.86678077  0.68077023     0.14600
H1490       H  0.38931806  0.83732117  0.58548462     0.14400
C1491       C  0.12405337  0.63700399  0.63494114     0.86200
C1492       C  0.13943556  0.61251452  0.61276087    -0.54100
C1493       C  0.16614061  0.61913240  0.59895637     0.09100
C1494       C  0.17610667  0.65061178  0.60847504     0.20000
C1495       C  0.14721560  0.64577721  0.66497849    -0.54800
C1496       C  0.17567130  0.65112307  0.65188951     0.09200
C1497       C  0.12367787  0.66408721  0.60952209    -0.54300
C1498       C  0.15055157  0.67095816  0.59524107     0.09800
H1499       H  0.12958607  0.59094262  0.60803129     0.14300
H1500       H  0.19590486  0.65769061  0.59388523     0.00000
H1501       H  0.14154105  0.64806082  0.69397072     0.14600
H1502       H  0.10385391  0.67662601  0.60251368     0.14400
C1503       C  0.12902452  0.62811496  0.86670175     0.86200
C1504       C  0.12738733  0.65695741  0.88950628    -0.54100
C1505       C  0.15416302  0.66740403  0.90061221     0.09100
C1506       C  0.18081581  0.64873419  0.88611999     0.20000
C1507       C  0.14921182  0.63651163  0.83348957    -0.54800
C1508       C  0.17755221  0.64563744  0.84299753     0.09200
C1509       C  0.14793614  0.60718776  0.88986720    -0.54300
C1510       C  0.17492213  0.61722353  0.89939221     0.09800
H1511       H  0.10700958  0.66803886  0.89779059     0.14300
H1512       H  0.20156107  0.65838526  0.89663972     0.00000
H1513       H  0.14146419  0.63503568  0.80515216     0.14600
H1514       H  0.14089017  0.58506557  0.89711466     0.14400
C1515       C  0.24060957  0.96427843  0.51073469     0.02000
C1516       C  0.24869042  0.97093961  0.97467908     0.01900
C1517       C  0.24342573  0.49850884  0.95775300    -0.18600
C1518       C  0.22534107  0.51927256  0.97661210     0.02000
C1519       C  0.21199645  0.50921227  0.51254970     0.01900
C1520       C  0.22150209  0.48312519  0.52923234    -0.18600
H1521       H  0.21602154  0.47907391  0.55802095     0.04000
H1522       H  0.25207057  0.50340383  0.93055420     0.04000
N1523       N  0.33022757  0.80430678  0.99233116    -0.36900
N1524       N  0.34050675  0.75764961  0.93464383    -0.57500
N1525       N  0.34846840  0.71444071  0.99266366    -0.36900
N1526       N  0.33796140  0.75858696  0.55076840    -0.57500
C1527       C  0.33227479  0.82144418  0.96188573     0.26700
C1528       C  0.33442148  0.82072464  0.52162079     0.26700
C1529       C  0.34158905  0.69773998  0.96232817     0.26700
C1530       C  0.34144782  0.69659261  0.52285087     0.26700
C1531       C  0.34305691  0.78229808  0.91376065     0.35300
C1532       C  0.35094912  0.73451037  0.91378261     0.35300
C1533       C  0.34502945  0.78361218  0.56974852     0.35300
C1534       C  0.35236647  0.73621223  0.56803849     0.35300
C1535       C  0.33323949  0.85077618  0.97300177    -0.22200
C1536       C  0.33772783  0.84944379  0.50978261    -0.22200
C1537       C  0.32693052  0.67271143  0.97398471    -0.22200
C1538       C  0.32851132  0.67015312  0.51244155    -0.22200
C1539       C  0.35477996  0.77498328  0.87969658    -0.23300
C1540       C  0.36050958  0.74553780  0.88010931    -0.23300
C1541       C  0.36377312  0.77709397  0.59884257    -0.23300
C1542       C  0.36954622  0.74755991  0.59626900    -0.23300
C1543       C  0.33703466  0.81187457  0.92477046    -0.18600
C1544       C  0.33792954  0.81272123  0.55910001    -0.18600
C1545       C  0.34851368  0.70573049  0.56002882    -0.18600
C1546       C  0.34990700  0.70407047  0.92488699    -0.18600
H1547       H  0.33809374  0.86979452  0.95681360     0.14300
H1548       H  0.34160935  0.86908295  0.52605882     0.14300
H1549       H  0.31777937  0.65541678  0.95665229     0.14300
H1550       H  0.31943243  0.65366339  0.53056301     0.14300
H1551       H  0.36002207  0.78946523  0.85700303     0.12600
H1552       H  0.37124504  0.73535736  0.85722339     0.12600
H1553       H  0.37441161  0.79215274  0.61796377     0.12600
H1554       H  0.38607478  0.73622977  0.61188812     0.12600
H1555       H  0.33004426  0.78142805  0.99245945     0.25800
H1556       H  0.36138890  0.73341562  0.99272536     0.25800
N1557       N  0.20113283  0.83565845  0.74400533    -0.36900
N1558       N  0.24367500  0.84157707  0.68411285    -0.57500
N1559       N  0.29463711  0.84352632  0.74053208    -0.36900
N1560       N  0.24709447  0.83854492  0.80099706    -0.57500
C1561       C  0.18354298  0.83046410  0.71432499     0.26700
C1562       C  0.18510133  0.82945724  0.77456808     0.26700
C1563       C  0.30259882  0.85959328  0.71073144     0.26700
C1564       C  0.30543829  0.85809951  0.77068141     0.26700
C1565       C  0.21786420  0.84796293  0.66614072     0.35300
C1566       C  0.26576173  0.85258710  0.66308273     0.35300
C1567       C  0.22208137  0.84608144  0.82000724     0.35300
C1568       C  0.26937437  0.85282497  0.81844371     0.35300
C1569       C  0.15660138  0.82020921  0.72633014    -0.22200
C1570       C  0.15718279  0.82064921  0.76403529    -0.22200
C1571       C  0.31531001  0.88561388  0.72232691    -0.22200
C1572       C  0.31755337  0.88453290  0.76005216    -0.22200
C1573       C  0.22354873  0.86341454  0.63423795    -0.23300
C1574       C  0.25341731  0.86737419  0.63347096    -0.23300
C1575       C  0.22845207  0.86566602  0.84845500    -0.23300
C1576       C  0.25795673  0.87116099  0.84581052    -0.23300
C1577       C  0.18918375  0.83993952  0.67796989    -0.18600
C1578       C  0.19334135  0.83631935  0.81124660    -0.18600
C1579       C  0.29954442  0.85177807  0.80800410    -0.18600
C1580       C  0.29622599  0.85346686  0.67324841    -0.18600
H1581       H  0.13761674  0.81484866  0.71020691     0.14300
H1582       H  0.13821234  0.81725288  0.78127641     0.14300
H1583       H  0.31963698  0.90451516  0.70534952     0.14300
H1584       H  0.32397974  0.90256673  0.77800673     0.14300
H1585       H  0.20793009  0.87254751  0.61458617     0.12600
H1586       H  0.26407032  0.88246351  0.61566566     0.12600
H1587       H  0.21337687  0.87653670  0.86759071     0.12600
H1588       H  0.26937098  0.88819859  0.86068737     0.12600
H1589       H  0.22094084  0.84713091  0.74374236     0.25800
H1590       H  0.28329855  0.82354901  0.74027671     0.25800
C1591       C  0.13188915  0.86581554  0.87566642     0.86200
C1592       C  0.11006280  0.84461915  0.85773995    -0.54100
C1593       C  0.12046857  0.81675528  0.85020013     0.09100
C1594       C  0.15376361  0.81349862  0.85905201     0.20000
C1595       C  0.14469037  0.84868506  0.90912599    -0.54800
C1596       C  0.15612241  0.82070807  0.90119957     0.09200
C1597       C  0.15769930  0.86643045  0.84816298    -0.54300
C1598       C  0.16929711  0.83940963  0.83946941     0.09800
H1599       H  0.08741993  0.85151910  0.85182897     0.14300
H1600       H  0.16256588  0.79222714  0.84996674     0.00000
H1601       H  0.14238259  0.85764804  0.93684660     0.14600
H1602       H  0.16676772  0.88603450  0.83593325     0.14400
C1603       C  0.12666278  0.87139424  0.61515665     0.86200
C1604       C  0.15337271  0.87176876  0.64214250    -0.54100
C1605       C  0.16317570  0.84439032  0.65257198     0.09100
C1606       C  0.14504790  0.81896959  0.63559087     0.20000
C1607       C  0.13785451  0.85148684  0.58302595    -0.54800
C1608       C  0.14790331  0.82358985  0.59301341     0.09200
C1609       C  0.10344308  0.85315075  0.63434229    -0.54300
C1610       C  0.11243239  0.82614437  0.64545695     0.09800
H1611       H  0.16476972  0.89144048  0.65133194     0.14300
H1612       H  0.15166781  0.79740342  0.64670037     0.00000
H1613       H  0.13686283  0.85911294  0.55481506     0.14600
H1614       H  0.08116172  0.86156060  0.63974985     0.14400
C1615       C  0.37357291  0.63776538  0.61970977     0.86200
C1616       C  0.34556584  0.63826282  0.64391343    -0.54100
C1617       C  0.33468857  0.66584254  0.65186491     0.09100
C1618       C  0.35275584  0.69096741  0.63369955     0.20000
C1619       C  0.36415745  0.65504334  0.58473253    -0.54800
C1620       C  0.35379779  0.68335849  0.59114799     0.09200
C1621       C  0.39482492  0.65787295  0.64037582    -0.54300
C1622       C  0.38534105  0.68606204  0.64709628     0.09800
H1623       H  0.33484169  0.61883754  0.65452138     0.14300
H1624       H  0.34295848  0.71286941  0.64002391     0.00000
H1625       H  0.36722051  0.64590243  0.55713617     0.14600
H1626       H  0.41644420  0.64977895  0.64923754     0.14400
C1627       C  0.37206446  0.62728479  0.87733431     0.86200
C1628       C  0.39546131  0.64239911  0.85443711    -0.54100
C1629       C  0.38802329  0.66943184  0.84240496     0.09100
C1630       C  0.35646876  0.67979390  0.85456295     0.20000
C1631       C  0.36560196  0.65012955  0.90917354    -0.54800
C1632       C  0.35679614  0.67816299  0.89776847     0.09200
C1633       C  0.34333033  0.62817355  0.85401955    -0.54300
C1634       C  0.33568102  0.65542676  0.84091473     0.09800
H1635       H  0.41711026  0.63253358  0.84870379     0.14300
H1636       H  0.34808931  0.70024605  0.84233601     0.00000
H1637       H  0.36837619  0.64472752  0.93809027     0.14600
H1638       H  0.32991819  0.60895587  0.84835591     0.14400
C1639       C  0.02615020  0.76579288  0.73327407     0.02000
C1640       C  0.02648892  0.75999733  0.77176142     0.01900
C1641       C  0.50341383  0.74137632  0.78954321    -0.18600
C1642       C  0.47819888  0.73536508  0.76813431     0.02000
C1643       C  0.47703220  0.74427863  0.73080763     0.01900
C1644       C  0.50074181  0.75990738  0.71619120    -0.18600
H1645       H  0.49988205  0.76679365  0.68748878     0.04000
H1646       H  0.50436245  0.73399991  0.81803114     0.04000
N1647       N  0.29974033  0.66670205  0.74677807    -0.36900
N1648       N  0.25526260  0.66647547  0.68746903    -0.57500
N1649       N  0.20934161  0.65856649  0.74695887    -0.36900
N1650       N  0.25609351  0.65995612  0.80584126    -0.57500
C1651       C  0.31680270  0.67334264  0.71699532     0.26700
C1652       C  0.31683944  0.67053528  0.77754292     0.26700
C1653       C  0.19933861  0.64468435  0.71566212     0.26700
C1654       C  0.19866741  0.64323347  0.77639988     0.26700
C1655       C  0.28021579  0.66507423  0.66643410     0.35300
C1656       C  0.23228220  0.65885654  0.66510224     0.35300
C1657       C  0.28121648  0.65437711  0.82547483     0.35300
C1658       C  0.23314375  0.65111779  0.82711296     0.35300
C1659       C  0.34448958  0.68121447  0.72914194    -0.22200
C1660       C  0.34401953  0.68096146  0.76673744    -0.22200
C1661       C  0.18501399  0.61911022  0.72550525    -0.22200
C1662       C  0.18488364  0.61813342  0.76345790    -0.22200
C1663       C  0.27335233  0.65672404  0.63071810    -0.23300
C1664       C  0.24360711  0.65177492  0.63013770    -0.23300
C1665       C  0.27431892  0.64195757  0.85903869    -0.23300
C1666       C  0.24438825  0.63892977  0.85941258    -0.23300
C1667       C  0.30948960  0.66967866  0.67903656    -0.18600
C1668       C  0.31035379  0.66071301  0.81399627    -0.18600
C1669       C  0.20316148  0.64942841  0.81488551    -0.18600
C1670       C  0.20277396  0.65379536  0.67807117    -0.18600
H1671       H  0.36380812  0.68543528  0.71297262     0.14300
H1672       H  0.36244489  0.68701972  0.78335340     0.14300
H1673       H  0.17649992  0.60224800  0.70709661     0.14300
H1674       H  0.17741814  0.59996774  0.77976113     0.14300
H1675       H  0.28855335  0.65192556  0.60818811     0.12600
H1676       H  0.23411695  0.63899956  0.60810105     0.12600
H1677       H  0.28914369  0.63446555  0.88062340     0.12600
H1678       H  0.23346162  0.62601272  0.87973421     0.12600
H1679       H  0.27929603  0.65640729  0.74578298     0.25800
H1680       H  0.22087174  0.67840691  0.74821191     0.25800
C1681       C  0.41005624  0.68634595  0.82137444    -0.06400
C1682       C  0.42050649  0.71254713  0.83703431    -0.17600
C1683       C  0.43950549  0.73053608  0.81750043     0.10800
C1684       C  0.45373182  0.71927668  0.78555415    -0.06400
C1685       C  0.44596787  0.69135212  0.77176041    -0.17600
C1686       C  0.42336933  0.67530230  0.78826915     0.10800
S1687       S  0.44276338  0.76823522  0.83315841    -0.32600
S1688       S  0.41381853  0.64065610  0.76614691    -0.32600
H1689       H  0.38538853  0.63783901  0.78113259     0.28800
H1690       H  0.44800344  0.77992140  0.79780084     0.28800
H1691       H  0.41413260  0.71905306  0.86480356     0.19400
H1692       H  0.45725335  0.68221441  0.74766622     0.19400
C1693       C  0.40721348  0.70761942  0.66388742    -0.06400
C1694       C  0.43730183  0.70315176  0.65438974    -0.17600
C1695       C  0.46015716  0.71501451  0.67542055     0.10800
C1696       C  0.45335778  0.73411330  0.70533166    -0.06400
C1697       C  0.42369386  0.74250953  0.71152605    -0.17600
C1698       C  0.40049149  0.73013981  0.69045079     0.10800
S1699       S  0.49739434  0.70265213  0.66445195    -0.32600
S1700       S  0.36341158  0.74446470  0.69734595    -0.32600
H1701       H  0.37060865  0.76728745  0.72241880     0.28800
H1702       H  0.00629635  0.69649600  0.70415914     0.28800
H1703       H  0.44333544  0.68851733  0.63159373     0.19400
H1704       H  0.41878898  0.75831583  0.73347692     0.19400
C1705       C  0.09270244  0.80881648  0.66983935    -0.06400
C1706       C  0.07729464  0.82438611  0.69800923    -0.17600
C1707       C  0.05538530  0.81105502  0.71877691     0.10800
C1708       C  0.05041653  0.78067721  0.71404936    -0.06400
C1709       C  0.06671911  0.76455511  0.68741668    -0.17600
C1710       C  0.08745432  0.77841868  0.66476753     0.10800
S1711       S  0.03279576  0.83459617  0.74809842    -0.32600
S1712       S  0.10445516  0.75770484  0.62750868    -0.32600
H1713       H  0.09475109  0.72963499  0.63814839     0.28800
H1714       H  0.00604209  0.82023327  0.74016552     0.28800
H1715       H  0.08132260  0.84768240  0.70269490     0.19400
H1716       H  0.06203945  0.74134034  0.68327622     0.19400
C1717       C  0.09918762  0.79339353  0.83710229    -0.06400
C1718       C  0.06985998  0.79685426  0.84954627    -0.17600
C1719       C  0.04604869  0.78725614  0.82841744     0.10800
C1720       C  0.05118264  0.76973709  0.79635979    -0.06400
C1721       C  0.08047139  0.76097116  0.78818221    -0.17600
C1722       C  0.10465811  0.77232230  0.80835393     0.10800
S1723       S  0.01036820  0.80186078  0.84197982    -0.32600
S1724       S  0.14117468  0.75777296  0.79813909    -0.32600
H1725       H  0.13418686  0.74480000  0.76364961     0.28800
H1726       H  0.99915005  0.80474959  0.80590644     0.28800
H1727       H  0.06515848  0.81044770  0.87381399     0.19400
H1728       H  0.08433536  0.74550304  0.76555811     0.19400
C1729       C  0.19629003  0.59645561  0.91625762    -0.06400
C1730       C  0.20377546  0.60022094  0.95351755    -0.17600
C1731       C  0.21395808  0.57631985  0.97471089     0.10800
C1732       C  0.21737040  0.54768860  0.95745669    -0.06400
C1733       C  0.21139300  0.54518990  0.91929978    -0.17600
C1734       C  0.20222533  0.56913923  0.89855963     0.10800
S1735       S  0.21553908  0.58224637  0.52353202    -0.32600
S1736       S  0.19664624  0.56277251  0.84968168    -0.32600
H1737       H  0.20669442  0.59065092  0.83950108     0.28800
H1738       H  0.17557385  0.55333816  0.57411671     0.28800
H1739       H  0.19872464  0.62114760  0.96714244     0.19400
H1740       H  0.21251313  0.52394782  0.90525647     0.19400
C1741       C  0.18105497  0.59646987  0.57634478    -0.06400
C1742       C  0.16088704  0.58391595  0.54005481    -0.17600
C1743       C  0.16861893  0.55104621  0.52039322     0.10800
C1744       C  0.19775973  0.53087316  0.53608184    -0.06400
C1745       C  0.21797060  0.54294647  0.57258313    -0.19200
C1746       C  0.20964680  0.57555417  0.59301033     0.10800
S1747       S  0.14744871  0.54030936  0.97974731    -0.32600
S1748       S  0.22718178  0.58245107  0.63667877    -0.32600
H1749       H  0.20193451  0.59608905  0.65153908     0.28800
H1750       H  0.15974735  0.51164503  0.97890867     0.28800
H1751       H  0.14113482  0.59557432  0.53147295     0.19400
H1752       H  0.23677929  0.53012752  0.58226725     0.19400
C1753       C  0.29879269  0.90779596  0.57156043    -0.06400
C1754       C  0.27658920  0.89544764  0.54901347    -0.17600
C1755       C  0.25416084  0.91332192  0.53426786     0.10800
C1756       C  0.25754958  0.94410669  0.53483462    -0.06400
C1757       C  0.27883079  0.95656361  0.55814936    -0.17600
C1758       C  0.29755614  0.93868157  0.57908357     0.10800
S1759       S  0.22024679  0.89624683  0.52009429    -0.32600
S1760       S  0.31593662  0.95640304  0.61768405    -0.32600
H1761       H  0.31313400  0.93215830  0.64148410     0.28800
H1762       H  0.19966978  0.92165690  0.01809668     0.28800
H1763       H  0.27532120  0.87177138  0.54509400     0.19400
H1764       H  0.27983510  0.98037792  0.56136710     0.19400
C1765       C  0.30283171  0.90758939  0.91445682    -0.06400
C1766       C  0.31000963  0.93799161  0.91520554    -0.17600
C1767       C  0.29480836  0.95828470  0.93750266     0.10800
C1768       C  0.26801906  0.94994964  0.95390617    -0.06400
C1769       C  0.25815872  0.92115310  0.94834819    -0.17600
C1770       C  0.27640721  0.89919680  0.93283722     0.10800
S1771       S  0.31154842  0.99390604  0.94465130    -0.32600
S1772       S  0.26555741  0.86159484  0.94094015    -0.32600
H1773       H  0.23487292  0.86721668  0.94036631     0.28800
H1774       H  0.30392432  0.49842069  0.98023851     0.28800
H1775       H  0.32823149  0.94655721  0.89947952     0.19400
H1776       H  0.23625233  0.91568050  0.95728549     0.19400
C1777       C  0.06858950  0.94791064  0.61024887    -0.06400
C1778       C  0.06647401  0.92575306  0.58293453    -0.17600
C1779       C  0.08701492  0.90228159  0.58065947     0.10800
C1780       C  0.11142177  0.90113848  0.60588010    -0.06400
C1781       C  0.11457277  0.92523764  0.63098270    -0.17600
C1782       C  0.09345951  0.94823527  0.63354564     0.10800
S1783       S  0.07900093  0.87243184  0.54838037    -0.32600
S1784       S  0.09828323  0.97782720  0.66695319    -0.32600
H1785       H  0.12665691  0.96929532  0.67924760     0.28800
H1786       H  0.05339187  0.88467198  0.53213043     0.28800
H1787       H  0.04745191  0.92591917  0.56464934     0.19400
H1788       H  0.13208139  0.92533421  0.65117655     0.19400
C1789       C  0.05103670  0.57767220  0.63510984    -0.06400
C1790       C  0.06885111  0.57973262  0.66692272    -0.17600
C1791       C  0.08980084  0.60215783  0.67172457     0.10800
C1792       C  0.09330297  0.62416739  0.64417870    -0.06400
C1793       C  0.07243047  0.62375137  0.61456583    -0.17600
C1794       C  0.05171816  0.60111256  0.60981415     0.10800
S1795       S  0.11354941  0.59930659  0.71158430    -0.32600
S1796       S  0.02744473  0.60310228  0.57020889    -0.32600
H1797       H  0.00273214  0.59204023  0.58900428     0.28800
H1798       H  0.09405306  0.58282825  0.73336143     0.28800
H1799       H  0.06797486  0.56226216  0.68715097     0.19400
H1800       H  0.07391542  0.63940090  0.59228836     0.19400
C1801       C  0.38996280  0.60798783  0.61342020    -0.06400
C1802       C  0.38572219  0.58429813  0.63824680    -0.17600
C1803       C  0.40590709  0.56044151  0.64068131     0.10800
C1804       C  0.43088651  0.55936314  0.61729378    -0.06400
C1805       C  0.43401832  0.58150688  0.59077229    -0.17600
C1806       C  0.41505287  0.60612688  0.58951008     0.10800
S1807       S  0.39884028  0.53258285  0.67477264    -0.32600
S1808       S  0.42697195  0.63669196  0.56137625    -0.32600
H1809       H  0.44486096  0.62005787  0.53675951     0.28800
H1810       H  0.41130565  0.50912717  0.65398660     0.28800
H1811       H  0.36789973  0.58486148  0.65808006     0.19400
H1812       H  0.45324771  0.58092449  0.57289151     0.19400
C1813       C  0.44452615  0.93483414  0.62111201    -0.06400
C1814       C  0.42400737  0.93581074  0.65016312    -0.17600
C1815       C  0.40077916  0.91572928  0.65265404     0.10800
C1816       C  0.39820648  0.89215258  0.62625061    -0.06400
C1817       C  0.42019654  0.89054274  0.59811350    -0.17600
C1818       C  0.44312870  0.91121787  0.59548838     0.10800
S1819       S  0.37406628  0.92302241  0.68877464    -0.32600
S1820       S  0.46963152  0.90634484  0.55854854    -0.32600
H1821       H  0.49361841  0.91820990  0.57832559     0.28800
H1822       H  0.38127958  0.95259041  0.69652832     0.28800
H1823       H  0.42526844  0.95365763  0.67031354     0.19400
H1824       H  0.41880746  0.87426474  0.57612923     0.19400
C1825       C  0.09962485  0.61158715  0.86007577    -0.06400
C1826       C  0.07647210  0.61494379  0.88667384    -0.17600
C1827       C  0.05470231  0.59336031  0.89173626     0.10800
C1828       C  0.05593880  0.56719225  0.87055174    -0.06400
C1829       C  0.07723570  0.56445263  0.84262640    -0.17600
C1830       C  0.09899714  0.58563588  0.83733492     0.10800
S1831       S  0.02603769  0.60036460  0.92558851    -0.32600
S1832       S  0.12771179  0.57620734  0.80456712    -0.32600
H1833       H  0.11567065  0.55016578  0.78960728     0.28800
H1834       H  0.00364439  0.58546853  0.90600070     0.28800
H1835       H  0.07594765  0.63340028  0.90578461     0.19400
H1836       H  0.07775606  0.54445604  0.82591224     0.19400
C1837       C  0.07420425  0.94375338  0.88409767    -0.06400
C1838       C  0.07142798  0.92066083  0.90939768    -0.17600
C1839       C  0.09100467  0.89634638  0.90930802     0.10800
C1840       C  0.11533426  0.89532451  0.88412877    -0.06400
C1841       C  0.11963576  0.92050129  0.86167892    -0.17600
C1842       C  0.09945188  0.94436066  0.86137881     0.10800
S1843       S  0.08177448  0.86543232  0.93844314    -0.32600
S1844       S  0.10701910  0.97489406  0.83123479    -0.32600
H1845       H  0.09415620  0.99662845  0.85453277     0.28800
H1846       H  0.06012374  0.87989892  0.96026568     0.28800
H1847       H  0.05226752  0.92050871  0.92740806     0.19400
H1848       H  0.13766878  0.92165496  0.84235596     0.19400
C1849       C  0.40166538  0.88654728  0.86114432    -0.06400
C1850       C  0.42226851  0.88367003  0.89089081    -0.17600
C1851       C  0.44527087  0.90384878  0.89700630     0.10800
C1852       C  0.44828343  0.92797982  0.87313003    -0.06400
C1853       C  0.42910794  0.93012378  0.84263801    -0.17600
C1854       C  0.40569597  0.91076011  0.83688223     0.10800
S1855       S  0.46955480  0.89773397  0.93592164    -0.32600
S1856       S  0.37943858  0.92059028  0.80107631    -0.32600
H1857       H  0.39195533  0.94725280  0.78955642     0.28800
H1858       H  0.49497096  0.90821402  0.91814582     0.28800
H1859       H  0.41954705  0.86696856  0.91166536     0.19400
H1860       H  0.43130594  0.94862125  0.82414315     0.19400
C1861       C  0.38530185  0.59638203  0.88580637    -0.06400
C1862       C  0.40311443  0.59328436  0.91778111    -0.17600
C1863       C  0.42574864  0.57176398  0.92024003     0.10800
C1864       C  0.43148012  0.55230479  0.88988900    -0.06400
C1865       C  0.41209698  0.55325787  0.85968939    -0.17600
C1866       C  0.38970312  0.57489160  0.85672810     0.10800
S1867       S  0.44837557  0.57283092  0.96139895    -0.32600
S1868       S  0.36965048  0.57569223  0.81320597    -0.32600
H1869       H  0.38872503  0.55720978  0.79234752     0.28800
H1870       H  0.44235223  0.54340109  0.97067686     0.28800
H1871       H  0.40151278  0.60928519  0.94010349     0.19400
H1872       H  0.41546354  0.53759988  0.83715374     0.19400
O1873       O  0.53485103  0.46965960  0.41020682    -0.74700
O1874       O  0.96720993  0.02327966  0.41437480    -0.74800
O1875       O  0.97693128  0.46109526  0.40570420    -0.74800
O1876       O  0.52767416  0.03156256  0.40969657    -0.74900
O1877       O  0.52548116  0.03100273  0.34801425    -0.74800
O1878       O  0.97847324  0.46240330  0.34405571    -0.74800
O1879       O  0.96495520  0.02327820  0.35283860    -0.74800
O1880       O  0.53690990  0.46988812  0.34848376    -0.74800
Ni1881     Ni  0.00165547  0.99869951  0.41368948     1.25400
Ni1882     Ni  0.50170562  0.49472097  0.34507495     1.25400
C1883       C  0.54695370  0.46101819  0.37994244     0.87400
C1884       C  0.95426407  0.03113932  0.38462610     0.87400
C1885       C  0.96968997  0.45035963  0.37370099     0.87400
C1886       C  0.53461036  0.04264607  0.37810662     0.87600
O1887       O  0.53275198  0.48094595  0.08827503    -0.74700
O1888       O  0.96543693  0.02881852  0.09155133    -0.74800
O1889       O  0.52294821  0.04196125  0.09630671    -0.74800
O1890       O  0.97397657  0.47014700  0.09420268    -0.74900
O1891       O  0.97459512  0.47000562  0.15598312    -0.74800
O1892       O  0.52156860  0.03955256  0.15787020    -0.74800
O1893       O  0.96284749  0.02797544  0.15319984    -0.74800
O1894       O  0.53316576  0.47971634  0.14998174    -0.74800
Ni1895     Ni  0.00020114  0.00508337  0.09024770     1.25400
Ni1896     Ni  0.99875097  0.00376802  0.15621113     1.25400
C1897       C  0.54403934  0.47148227  0.11842139     0.87400
C1898       C  0.95278940  0.03678380  0.12170024     0.87400
C1899       C  0.52982191  0.05252955  0.12843253     0.87400
C1900       C  0.96624899  0.45866785  0.12519372     0.87600
N1901       N  0.65857484  0.20003483  0.49665219    -0.36900
N1902       N  0.66144729  0.24371164  0.43880187    -0.57500
N1903       N  0.66090053  0.29054110  0.49627228    -0.36900
N1904       N  0.65313224  0.24787368  0.05435951    -0.57500
C1905       C  0.65109403  0.18362725  0.46645276     0.26700
C1906       C  0.64560240  0.18662152  0.02772033     0.26700
C1907       C  0.66957388  0.30614345  0.46641366     0.26700
C1908       C  0.66181694  0.30907414  0.02653771     0.26700
C1909       C  0.66815743  0.21872326  0.41944740     0.35300
C1910       C  0.67234105  0.26647869  0.41939709     0.35300
C1911       C  0.66063741  0.22374058  0.07405704     0.35300
C1912       C  0.66263914  0.27138331  0.07408271     0.35300
C1913       C  0.63725769  0.15808279  0.47791002    -0.22200
C1914       C  0.63234532  0.16054653  0.01673134    -0.22200
C1915       C  0.68093369  0.33291956  0.47826866    -0.22200
C1916       C  0.67474424  0.33511912  0.01565330    -0.22200
C1917       C  0.68407455  0.22540036  0.38801068    -0.23300
C1918       C  0.68790525  0.25553694  0.38894032    -0.23300
C1919       C  0.67590751  0.23167297  0.10579129    -0.23300
C1920       C  0.67824235  0.26192096  0.10497841    -0.23300
C1921       C  0.65838922  0.19039980  0.42927225    -0.18600
C1922       C  0.65138009  0.19515839  0.06475962    -0.18600
C1923       C  0.65696945  0.30098150  0.06405005    -0.18600
C1924       C  0.66754546  0.29675657  0.42880182    -0.18600
H1925       H  0.62920722  0.14007385  0.46091287     0.14300
H1926       H  0.62222763  0.14437692  0.03434672     0.14300
H1927       H  0.69098283  0.34964641  0.46136501     0.14300
H1928       H  0.68281478  0.35249579  0.03359252     0.14300
H1929       H  0.69288938  0.21013690  0.36740517     0.12600
H1930       H  0.70136452  0.26783267  0.36983399     0.12600
H1931       H  0.68502988  0.21716258  0.12666685     0.12600
H1932       H  0.69077129  0.27525549  0.12435267     0.12600
H1933       H  0.67196557  0.21862051  0.49691214     0.25800
H1934       H  0.64981085  0.27055560  0.49547161     0.25800
C1935       C  0.87265012  0.36902839  0.36426221     0.86200
C1936       C  0.87173132  0.34134689  0.38827172    -0.54100
C1937       C  0.84391923  0.33310958  0.39767693     0.09100
C1938       C  0.81916634  0.35291318  0.38173615     0.20000
C1939       C  0.85280096  0.36051678  0.33057416    -0.54800
C1940       C  0.82385247  0.35372269  0.33930318     0.09200
C1941       C  0.85464963  0.39206742  0.38605991    -0.54300
C1942       C  0.82638458  0.38462585  0.39507885     0.09800
H1943       H  0.89109341  0.32915069  0.39769444     0.14300
H1944       H  0.79783716  0.34372990  0.38935743     0.00000
H1945       H  0.86114740  0.35894404  0.30251834     0.14600
H1946       H  0.86484898  0.41250789  0.39496281     0.14400
C1947       C  0.86893486  0.37538911  0.12240428     0.86200
C1948       C  0.84987155  0.39678571  0.10000013    -0.54100
C1949       C  0.82207691  0.38764042  0.09184117     0.09100
C1950       C  0.81642967  0.35569815  0.10439593     0.20000
C1951       C  0.84932679  0.36626941  0.15580071    -0.54800
C1952       C  0.82073435  0.35774799  0.14695190     0.09200
C1953       C  0.86984091  0.34721698  0.09825953    -0.54300
C1954       C  0.84258118  0.33668124  0.08892460     0.09800
H1955       H  0.85826053  0.41786680  0.09087615     0.14300
H1956       H  0.79512258  0.34635135  0.09530851     0.00000
H1957       H  0.85781724  0.36645713  0.18386255     0.14600
H1958       H  0.88992590  0.33647171  0.08836164     0.14400
C1959       C  0.62135656  0.13840619  0.13254121     0.86200
C1960       C  0.63670183  0.11438456  0.10921121    -0.54100
C1961       C  0.66345567  0.12137643  0.09570450     0.09100
C1962       C  0.67339070  0.15249215  0.10679858     0.20000
C1963       C  0.64439319  0.14656968  0.16286490    -0.54800
C1964       C  0.67280170  0.15210671  0.15008275     0.09200
C1965       C  0.62098752  0.16604037  0.10821876    -0.54300
C1966       C  0.64796982  0.17305406  0.09447091     0.09800
H1967       H  0.62691053  0.09290730  0.10373818     0.14300
H1968       H  0.69309341  0.16013013  0.09246975     0.00000
H1969       H  0.63855614  0.14897123  0.19177720     0.14600
H1970       H  0.60117009  0.17859480  0.10121495     0.14400
C1971       C  0.62731924  0.12878877  0.36666904     0.86200
C1972       C  0.62699508  0.15763607  0.38971827    -0.54100
C1973       C  0.65441673  0.16720009  0.39983415     0.09100
C1974       C  0.67998597  0.14775572  0.38452506     0.20000
C1975       C  0.64689767  0.13677429  0.33286629    -0.54800
C1976       C  0.67553059  0.14518732  0.34158288     0.09200
C1977       C  0.64602453  0.10722130  0.38912750    -0.54300
C1978       C  0.67337856  0.11641440  0.39792943     0.09800
H1979       H  0.60708379  0.16920129  0.39879659     0.14300
H1980       H  0.70126437  0.15668248  0.39440906     0.00000
H1981       H  0.63854118  0.13577251  0.30476581     0.14600
H1982       H  0.63845306  0.08533578  0.39666642     0.14400
C1983       C  0.74520535  0.46678905  0.01066599     0.02000
C1984       C  0.75424938  0.47136631  0.47547783     0.01900
C1985       C  0.73985139  0.99594985  0.45718369    -0.18600
C1986       C  0.72218076  0.01733656  0.47545967     0.02000
C1987       C  0.71456233  0.01171811  0.01274371     0.01900
C1988       C  0.72366833  0.98587326  0.03037144    -0.18600
H1989       H  0.71737371  0.98216028  0.05896665     0.04000
H1990       H  0.74811173  0.00000947  0.42960001     0.04000
N1991       N  0.83271945  0.30183341  0.49292215    -0.36900
N1992       N  0.83920426  0.25495198  0.43346897    -0.57500
N1993       N  0.84846587  0.21138941  0.49009247    -0.36900
N1994       N  0.83975564  0.25832184  0.05096901    -0.57500
C1995       C  0.83562832  0.31898506  0.46270333     0.26700
C1996       C  0.83370814  0.32051039  0.02363496     0.26700
C1997       C  0.84033012  0.19482134  0.46013679     0.26700
C1998       C  0.84178973  0.19702049  0.02203433     0.26700
C1999       C  0.84168581  0.27982595  0.41298604     0.35300
C2000       C  0.84792501  0.23180234  0.41135375     0.35300
C2001       C  0.84684216  0.28303937  0.07049286     0.35300
C2002       C  0.85354069  0.23551727  0.06800066     0.35300
C2003       C  0.83855752  0.34814971  0.47398478    -0.22200
C2004       C  0.83454694  0.34951294  0.01215990    -0.22200
C2005       C  0.82585391  0.16992702  0.47259828    -0.22200
C2006       C  0.82774325  0.17141884  0.01063646    -0.22200
C2007       C  0.85111632  0.27262031  0.37779654    -0.23300
C2008       C  0.85614048  0.24305801  0.37720128    -0.23300
C2009       C  0.86517754  0.27591565  0.09978764    -0.23300
C2010       C  0.87049753  0.24624079  0.09677983    -0.23300
C2011       C  0.83876390  0.30949895  0.42538213    -0.18600
C2012       C  0.83892745  0.31223081  0.06082482    -0.18600
C2013       C  0.84866765  0.20530013  0.05947403    -0.18600
C2014       C  0.84729045  0.20126091  0.42225641    -0.18600
H2015       H  0.84399944  0.36700456  0.45763978     0.14300
H2016       H  0.83782908  0.36915470  0.02850208     0.14300
H2017       H  0.81595474  0.15272358  0.45579147     0.14300
H2018       H  0.81773300  0.15501549  0.02808842     0.14300
H2019       H  0.85612589  0.28734205  0.35525753     0.12600
H2020       H  0.86659884  0.23321314  0.35380621     0.12600
H2021       H  0.87548008  0.29059447  0.11966459     0.12600
H2022       H  0.88655252  0.23438438  0.11239135     0.12600
H2023       H  0.83063448  0.27905285  0.49257075     0.25800
H2024       H  0.86160781  0.23019302  0.48945320     0.25800
N2025       N  0.70146173  0.33220345  0.24358848    -0.36900
N2026       N  0.74361640  0.33917452  0.18438962    -0.57500
N2027       N  0.79305862  0.34193625  0.24281958    -0.36900
N2028       N  0.74691842  0.33455093  0.30237271    -0.57500
C2029       C  0.68401322  0.32692342  0.21375641     0.26700
C2030       C  0.68525186  0.32574188  0.27380718     0.26700
C2031       C  0.80173170  0.35817294  0.21338047     0.26700
C2032       C  0.80398269  0.35586584  0.27345077     0.26700
C2033       C  0.71790307  0.34555748  0.16618756     0.35300
C2034       C  0.76576645  0.35108929  0.16435201     0.35300
C2035       C  0.72159466  0.34120632  0.32117944     0.35300
C2036       C  0.76913818  0.34704578  0.32214543     0.35300
C2037       C  0.65731985  0.31592297  0.22540424    -0.22200
C2038       C  0.65757853  0.31639912  0.26300833    -0.22200
C2039       C  0.81489197  0.38372425  0.22582286    -0.22200
C2040       C  0.81670590  0.38216415  0.26354630    -0.22200
C2041       C  0.72367179  0.36174878  0.13492841    -0.23300
C2042       C  0.75354050  0.36626430  0.13489882    -0.23300
C2043       C  0.72761521  0.35831642  0.35208903    -0.23300
C2044       C  0.75725626  0.36330499  0.35129706    -0.23300
C2045       C  0.68923848  0.33727176  0.17775901    -0.18600
C2046       C  0.69283326  0.33290620  0.31044916    -0.18600
C2047       C  0.79913874  0.34842710  0.31078272    -0.18600
C2048       C  0.79601863  0.35246365  0.17543632    -0.18600
H2049       H  0.63874928  0.30981808  0.20906093     0.14300
H2050       H  0.63854292  0.31262238  0.28005996     0.14300
H2051       H  0.81984966  0.40269864  0.20939048     0.14300
H2052       H  0.82374911  0.39967646  0.28200322     0.14300
H2053       H  0.70800737  0.37110429  0.11548176     0.12600
H2054       H  0.76424478  0.38187766  0.11771640     0.12600
H2055       H  0.71214170  0.36830823  0.37149739     0.12600
H2056       H  0.76813200  0.37967056  0.36796179     0.12600
H2057       H  0.72105869  0.34405585  0.24389509     0.25800
H2058       H  0.78162234  0.32202343  0.24195428     0.25800
C2059       C  0.63118607  0.36265595  0.37417449     0.86200
C2060       C  0.60931908  0.34078778  0.35768183    -0.54100
C2061       C  0.62009414  0.31311157  0.35013372     0.09100
C2062       C  0.65360719  0.31058294  0.35773539     0.20000
C2063       C  0.64532727  0.34633194  0.40741124    -0.54800
C2064       C  0.65735214  0.31861793  0.39937595     0.09200
C2065       C  0.65640525  0.36337822  0.34571839    -0.54300
C2066       C  0.66818766  0.33635953  0.33737398     0.09800
H2067       H  0.58636163  0.34708349  0.35266991     0.14300
H2068       H  0.66243838  0.28938656  0.34846835     0.00000
H2069       H  0.64401742  0.35579327  0.43496665     0.14600
H2070       H  0.66554277  0.38301115  0.33358841     0.14400
C2071       C  0.62545817  0.37065680  0.11799689     0.86200
C2072       C  0.65271205  0.37026910  0.14426136    -0.54100
C2073       C  0.66278640  0.34257580  0.15312712     0.09100
C2074       C  0.64418025  0.31771086  0.13559664     0.20000
C2075       C  0.63625800  0.35170721  0.08454973    -0.54800
C2076       C  0.64663948  0.32366424  0.09314646     0.09200
C2077       C  0.60257794  0.35184246  0.13704295    -0.54300
C2078       C  0.61168884  0.32457364  0.14673544     0.09800
H2079       H  0.66414131  0.38973953  0.15407654     0.14300
H2080       H  0.65070588  0.29580310  0.14567046     0.00000
H2081       H  0.63512583  0.36003191  0.05660730     0.14600
H2082       H  0.58050182  0.36015477  0.14386256     0.14400
C2083       C  0.87012245  0.13606413  0.11858848     0.86200
C2084       C  0.84165433  0.13679646  0.14179319    -0.54100
C2085       C  0.83128105  0.16456049  0.14990236     0.09100
C2086       C  0.85017456  0.18954508  0.13272453     0.20000
C2087       C  0.86168298  0.15386966  0.08365723    -0.54800
C2088       C  0.85212461  0.18239317  0.09023365     0.09200
C2089       C  0.89124022  0.15548086  0.14047867    -0.54300
C2090       C  0.88220408  0.18381585  0.14715056     0.09800
H2091       H  0.83049996  0.11740932  0.15186974     0.14300
H2092       H  0.84073725  0.21162578  0.13886082     0.00000
H2093       H  0.86452812  0.14485246  0.05598639     0.14600
H2094       H  0.91241161  0.14683458  0.15019160     0.14400
C2095       C  0.86876995  0.12477446  0.37330766     0.86200
C2096       C  0.89214475  0.14013487  0.35042986    -0.54100
C2097       C  0.88459828  0.16728826  0.33878035     0.09100
C2098       C  0.85304785  0.17737399  0.35155026     0.20000
C2099       C  0.86246325  0.14734100  0.40556461    -0.54800
C2100       C  0.85359349  0.17544827  0.39468305     0.09200
C2101       C  0.84016572  0.12563580  0.35016113    -0.54300
C2102       C  0.83237555  0.15299449  0.33782568     0.09800
H2103       H  0.91375819  0.13032811  0.34438597     0.14300
H2104       H  0.84423394  0.19773725  0.33970612     0.00000
H2105       H  0.86560259  0.14192690  0.43436707     0.14600
H2106       H  0.82735318  0.10617696  0.34342246     0.14400
C2107       C  0.52427616  0.26566325  0.23546100     0.02000
C2108       C  0.52496881  0.25808104  0.27355023     0.01900
C2109       C  0.00133494  0.23972971  0.28618943    -0.18600
C2110       C  0.97556331  0.23436377  0.26558073     0.02000
C2111       C  0.97408117  0.24369287  0.22835676     0.01900
C2112       C  0.99785308  0.25905485  0.21319658    -0.18600
H2113       H  0.99669690  0.26591789  0.18449760     0.04000
H2114       H  0.00277041  0.23182503  0.31440856     0.04000
N2115       N  0.79652923  0.16462833  0.24440506    -0.36900
N2116       N  0.75216759  0.16692959  0.18574132    -0.57500
N2117       N  0.70596803  0.15926730  0.24528048    -0.36900
N2118       N  0.75321729  0.15842776  0.30339617    -0.57500
C2119       C  0.81356569  0.17182916  0.21490577     0.26700
C2120       C  0.81347634  0.16870538  0.27516785     0.26700
C2121       C  0.69606254  0.14556297  0.21385327     0.26700
C2122       C  0.69515829  0.14375236  0.27447912     0.26700
C2123       C  0.77698063  0.16510794  0.16452642     0.35300
C2124       C  0.72907113  0.15990002  0.16335668     0.35300
C2125       C  0.77824811  0.15183993  0.32257071     0.35300
C2126       C  0.73043698  0.14912600  0.32440216     0.35300
C2127       C  0.84103642  0.18007319  0.22719640    -0.22200
C2128       C  0.84042154  0.17977581  0.26465446    -0.22200
C2129       C  0.68158653  0.12000557  0.22345802    -0.22200
C2130       C  0.68125724  0.11882437  0.26132035    -0.22200
C2131       C  0.76996416  0.15732079  0.12873975    -0.23300
C2132       C  0.74021350  0.15295602  0.12823922    -0.23300
C2133       C  0.77148480  0.13832639  0.35547169    -0.23300
C2134       C  0.74164426  0.13541857  0.35569004    -0.23300
C2135       C  0.80627137  0.16869213  0.17705574    -0.18600
C2136       C  0.80716483  0.15842107  0.31124671    -0.18600
C2137       C  0.70040776  0.14903290  0.31288565    -0.18600
C2138       C  0.69964664  0.15482654  0.17637245    -0.18600
H2139       H  0.86026587  0.18486085  0.21132135     0.14300
H2140       H  0.85861036  0.18641938  0.28126894     0.14300
H2141       H  0.67295926  0.10325242  0.20506225     0.14300
H2142       H  0.67367118  0.10054774  0.27736700     0.14300
H2143       H  0.78504186  0.15226391  0.10616225     0.12600
H2144       H  0.73067279  0.14025019  0.10618136     0.12600
H2145       H  0.78628343  0.13005685  0.37662569     0.12600
H2146       H  0.73062153  0.12195739  0.37528043     0.12600
H2147       H  0.77636873  0.15377305  0.24317853     0.25800
H2148       H  0.71768251  0.17899235  0.24679270     0.25800
C2149       C  0.90659960  0.18464167  0.31792424    -0.06400
C2150       C  0.91713226  0.21052449  0.33430063    -0.17600
C2151       C  0.93709511  0.22840639  0.31594801     0.10800
C2152       C  0.95111796  0.21793194  0.28330916    -0.06400
C2153       C  0.94283582  0.19041900  0.26861379    -0.17600
C2154       C  0.91999975  0.17422895  0.28453169     0.10800
S2155       S  0.94202246  0.26495035  0.33464656    -0.32600
S2156       S  0.91006422  0.14035054  0.26091458    -0.32600
H2157       H  0.88186390  0.13724644  0.27637324     0.28800
H2158       H  0.94716485  0.27820449  0.30019545     0.28800
H2159       H  0.91012393  0.21681403  0.36192360     0.19400
H2160       H  0.95398277  0.18161818  0.24424611     0.19400
C2161       C  0.90415115  0.20502691  0.16419434    -0.06400
C2162       C  0.93416342  0.19996125  0.15500187    -0.17600
C2163       C  0.95704482  0.21284433  0.17476230     0.10800
C2164       C  0.95038805  0.23332210  0.20321621    -0.06400
C2165       C  0.92080173  0.24217354  0.20895833    -0.17600
C2166       C  0.89749320  0.22869452  0.18925505     0.10800
S2167       S  0.99420141  0.20027078  0.16391103    -0.32600
S2168       S  0.86053224  0.24346452  0.19568703    -0.32600
H2169       H  0.86570916  0.25672932  0.23051456     0.28800
H2170       H  0.50037182  0.19526704  0.20752301     0.28800
H2171       H  0.94018892  0.18449629  0.13308361     0.19400
H2172       H  0.91603582  0.25927871  0.22938882     0.19400
C2173       C  0.59239012  0.30702271  0.17167321    -0.06400
C2174       C  0.57969656  0.32184731  0.20247006    -0.17600
C2175       C  0.55782171  0.30897125  0.22395706     0.10800
C2176       C  0.54932501  0.27972482  0.21616310    -0.06400
C2177       C  0.56317820  0.26413310  0.18683512    -0.17600
C2178       C  0.58444808  0.27755687  0.16431274     0.10800
S2179       S  0.54022672  0.33194331  0.25886593    -0.32600
S2180       S  0.59909740  0.25785138  0.12461273    -0.32600
H2181       H  0.58699023  0.23023052  0.13298678     0.28800
H2182       H  0.51169633  0.32054347  0.25362932     0.28800
H2183       H  0.58596242  0.34438383  0.20882178     0.19400
H2184       H  0.55630615  0.24176580  0.18070847     0.19400
C2185       C  0.59899643  0.28927976  0.33799403    -0.06400
C2186       C  0.57006999  0.29191114  0.35200250    -0.17600
C2187       C  0.54577503  0.28204692  0.33193113     0.10800
C2188       C  0.55020327  0.26607241  0.29841556    -0.06400
C2189       C  0.57935743  0.25783993  0.28867708    -0.17600
C2190       C  0.60392392  0.26874485  0.30854252     0.10800
S2191       S  0.51017790  0.29424753  0.34902923    -0.32600
S2192       S  0.64017211  0.25382370  0.29771295    -0.32600
H2193       H  0.63283630  0.24191146  0.26274440     0.28800
H2194       H  0.49823336  0.30073295  0.31405516     0.28800
H2195       H  0.56595647  0.30502032  0.37684709     0.19400
H2196       H  0.58281021  0.24314497  0.26516319     0.19400
C2197       C  0.69420375  0.09508682  0.41472583    -0.06400
C2198       C  0.70159657  0.09861504  0.45196095    -0.17600
C2199       C  0.71177154  0.07461414  0.47289789     0.10800
C2200       C  0.71507806  0.04595325  0.45577571    -0.06400
C2201       C  0.70970921  0.04379311  0.41739996    -0.17600
C2202       C  0.70007099  0.06779127  0.39684432     0.10800
S2203       S  0.71658244  0.08502170  0.02328121    -0.32600
S2204       S  0.69316088  0.06113908  0.34823426    -0.32600
H2205       H  0.69855165  0.09008482  0.33734192     0.28800
H2206       H  0.67454984  0.05582724  0.07083330     0.28800
H2207       H  0.69657828  0.11948722  0.46575655     0.19400
H2208       H  0.71105665  0.02268483  0.40311951     0.19400
C2209       C  0.67944698  0.09905049  0.07349848    -0.06400
C2210       C  0.66121650  0.08622601  0.03575882    -0.17600
C2211       C  0.67027712  0.05331642  0.01681260     0.10800
C2212       C  0.69888561  0.03348047  0.03484794    -0.06400
C2213       C  0.71711150  0.04598281  0.07271347    -0.19200
C2214       C  0.70742797  0.07853609  0.09223457     0.10800
S2215       S  0.64497542  0.03954145  0.47813098    -0.32600
S2216       S  0.72197943  0.08537135  0.13748902    -0.32600
H2217       H  0.69438015  0.09503325  0.15035657     0.28800
H2218       H  0.65632508  0.01049486  0.47845461     0.28800
H2219       H  0.64190158  0.09780823  0.02553671     0.19400
H2220       H  0.73550429  0.03342974  0.08399259     0.19400
C2221       C  0.80003601  0.40777131  0.07374392    -0.06400
C2222       C  0.77754974  0.39615188  0.05096654    -0.17600
C2223       C  0.75657715  0.41489647  0.03441109     0.10800
C2224       C  0.76171754  0.44552820  0.03399689    -0.06400
C2225       C  0.78322577  0.45717587  0.05764718    -0.17600
C2226       C  0.80029713  0.43881743  0.08000760     0.10800
S2227       S  0.72201911  0.39919022  0.01986719    -0.32600
S2228       S  0.81830167  0.45645962  0.11892090    -0.32600
H2229       H  0.81378168  0.43271730  0.14307190     0.28800
H2230       H  0.70638608  0.42511419  0.52225693     0.28800
H2231       H  0.77498798  0.37251493  0.04801716     0.19400
H2232       H  0.78541210  0.48093473  0.06037365     0.19400
C2233       C  0.80633219  0.40632201  0.41523723    -0.06400
C2234       C  0.81320659  0.43676282  0.41340255    -0.17600
C2235       C  0.79837665  0.45801270  0.43480156     0.10800
C2236       C  0.77262747  0.45001919  0.45391518    -0.06400
C2237       C  0.76300896  0.42091838  0.45108117    -0.17600
C2238       C  0.78084436  0.39850024  0.43588772     0.10800
S2239       S  0.81407961  0.49449807  0.43691367    -0.32600
S2240       S  0.77099338  0.36109403  0.44708064    -0.32600
H2241       H  0.74099563  0.36669385  0.45490074     0.28800
H2242       H  0.80043208  0.99812451  0.47743516     0.28800
H2243       H  0.83086705  0.44460241  0.39609762     0.19400
H2244       H  0.74165737  0.41565907  0.46200949     0.19400
C2245       C  0.56846119  0.44906285  0.11536957    -0.06400
C2246       C  0.56578801  0.42701755  0.08794457    -0.17600
C2247       C  0.58541796  0.40273594  0.08573262     0.10800
C2248       C  0.60996986  0.40070848  0.11059737    -0.06400
C2249       C  0.61346420  0.42422102  0.13649944    -0.17600
C2250       C  0.59316675  0.44795184  0.13917642     0.10800
S2251       S  0.57564714  0.37281617  0.05442051    -0.32600
S2252       S  0.59968365  0.47577744  0.17419848    -0.32600
H2253       H  0.59015013  0.49945970  0.15202124     0.28800
H2254       H  0.55411076  0.38815002  0.03369820     0.28800
H2255       H  0.54671597  0.42767767  0.06974976     0.19400
H2256       H  0.63080139  0.42360502  0.15702376     0.19400
C2257       C  0.54838960  0.07937721  0.13293498    -0.06400
C2258       C  0.56619424  0.08140418  0.16470885    -0.17600
C2259       C  0.58741011  0.10349676  0.16922605     0.10800
C2260       C  0.59071873  0.12566010  0.14186234    -0.06400
C2261       C  0.56992740  0.12531870  0.11221586    -0.17600
C2262       C  0.54943807  0.10254999  0.10721943     0.10800
S2263       S  0.61053639  0.10094910  0.20969572    -0.32600
S2264       S  0.52631391  0.10387783  0.06650647    -0.32600
H2265       H  0.50102496  0.09348917  0.08464812     0.28800
H2266       H  0.60900067  0.07009340  0.21352388     0.28800
H2267       H  0.56471966  0.06444104  0.18554708     0.19400
H2268       H  0.57152957  0.14099972  0.08996940     0.19400
C2269       C  0.88630642  0.10624006  0.11250733    -0.06400
C2270       C  0.88245505  0.08318803  0.13837450    -0.17600
C2271       C  0.90279100  0.05953137  0.14147303     0.10800
C2272       C  0.92802464  0.05854315  0.11856778    -0.06400
C2273       C  0.93104480  0.08019532  0.09143695    -0.17600
C2274       C  0.91143097  0.10413371  0.08863141     0.10800
S2275       S  0.89525103  0.03146869  0.17513559    -0.32600
S2276       S  0.92257451  0.13343669  0.05801442    -0.32600
H2277       H  0.93886364  0.11543410  0.03312554     0.28800
H2278       H  0.90820535  0.00809399  0.15460101     0.28800
H2279       H  0.86462403  0.08408218  0.15822212     0.19400
H2280       H  0.95042051  0.07964142  0.07381120     0.19400
C2281       C  0.94523740  0.43367698  0.12704071    -0.06400
C2282       C  0.92259629  0.43644181  0.15316917    -0.17600
C2283       C  0.89956454  0.41618914  0.15529931     0.10800
C2284       C  0.89858159  0.39135850  0.13057873    -0.06400
C2285       C  0.92296381  0.38765730  0.10594043    -0.17600
C2286       C  0.94628354  0.40812424  0.10442421     0.10800
S2287       S  0.87062024  0.42510989  0.18795777    -0.32600
S2288       S  0.97676849  0.40026983  0.07344615    -0.32600
H2289       H  0.99810134  0.41593351  0.09387952     0.28800
H2290       H  0.88447810  0.44828319  0.20728330     0.28800
H2291       H  0.92208268  0.45586720  0.17093514     0.19400
H2292       H  0.92359325  0.36970181  0.08607494     0.19400
C2293       C  0.59760466  0.11291441  0.36093491    -0.06400
C2294       C  0.57618565  0.11545643  0.38973031    -0.17600
C2295       C  0.55527253  0.09338135  0.39651776     0.10800
C2296       C  0.55487377  0.06795126  0.37381914    -0.06400
C2297       C  0.57437373  0.06618000  0.34374687    -0.17600
C2298       C  0.59589664  0.08739017  0.33751341     0.10800
S2299       S  0.53047689  0.09861034  0.43515969    -0.32600
S2300       S  0.62366110  0.07757492  0.30358271    -0.32600
H2301       H  0.60795748  0.05548365  0.28447681     0.28800
H2302       H  0.50594252  0.08593841  0.41726095     0.28800
H2303       H  0.57698465  0.13340892  0.40959059     0.19400
H2304       H  0.57424806  0.04651892  0.32637956     0.19400
C2305       C  0.57184874  0.43930742  0.38210035    -0.06400
C2306       C  0.56993621  0.41651888  0.40805556    -0.17600
C2307       C  0.59028770  0.39276880  0.40836246     0.10800
C2308       C  0.61416198  0.39185936  0.38249014    -0.06400
C2309       C  0.61715450  0.41639724  0.35875301    -0.17600
C2310       C  0.59648465  0.43975349  0.35830677     0.10800
S2311       S  0.58328020  0.36255959  0.43964418    -0.32600
S2312       S  0.60273551  0.46938408  0.32631080    -0.32600
H2313       H  0.59038869  0.49169983  0.34912742     0.28800
H2314       H  0.55693981  0.37370139  0.45551603     0.28800
H2315       H  0.55124708  0.41644100  0.42681749     0.19400
H2316       H  0.63454702  0.41733882  0.33850246     0.19400
C2317       C  0.90355819  0.38256442  0.35841156    -0.06400
C2318       C  0.92429707  0.38074644  0.38815208    -0.17600
C2319       C  0.94726215  0.40113227  0.39293744     0.10800
C2320       C  0.94925484  0.42513213  0.36880665    -0.06400
C2321       C  0.93054288  0.42589310  0.33779546    -0.17600
C2322       C  0.90802195  0.40541097  0.33218959     0.10800
S2323       S  0.97342364  0.39526465  0.42995073    -0.32600
S2324       S  0.88386765  0.41180202  0.29310441    -0.32600
H2325       H  0.90078817  0.43307513  0.27484641     0.28800
H2326       H  0.99779100  0.40540370  0.40966130     0.28800
H2327       H  0.92183738  0.36460411  0.40968521     0.19400
H2328       H  0.93236345  0.44405200  0.31869505     0.19400
C2329       C  0.88131222  0.09366716  0.38093560    -0.06400
C2330       C  0.89554739  0.08821094  0.41497292    -0.17600
C2331       C  0.91825512  0.06696802  0.41809555     0.10800
C2332       C  0.92680205  0.04977021  0.38662258    -0.06400
C2333       C  0.90959174  0.05193715  0.35454533    -0.17600
C2334       C  0.88754863  0.07366788  0.35082534     0.10800
S2335       S  0.93713340  0.06556312  0.46209520    -0.32600
S2336       S  0.87067234  0.07695293  0.30543199    -0.32600
H2337       H  0.89233547  0.06112168  0.28511921     0.28800
H2338       H  0.93178260  0.03526008  0.46664046     0.28800
H2339       H  0.89129230  0.10215840  0.43881939     0.19400
H2340       H  0.91466423  0.03756428  0.33116569     0.19400
O2341       O  0.53747733  0.47062231  0.91039048    -0.74700
O2342       O  0.96832714  0.02298782  0.91051514    -0.74800
O2343       O  0.97883576  0.46135837  0.90559957    -0.74800
O2344       O  0.52800049  0.03299895  0.90750354    -0.74900
O2345       O  0.52535041  0.03192661  0.84584176    -0.74800
O2346       O  0.97940638  0.46269093  0.84395908    -0.74800
O2347       O  0.96705901  0.02161998  0.84901675    -0.74800
O2348       O  0.53748904  0.47289395  0.84868576    -0.74800
Ni2349     Ni  0.00253893  0.99844317  0.91228509     1.25400
Ni2350     Ni  0.50271157  0.49864101  0.84896633     1.25400
C2351       C  0.54827754  0.46264717  0.87906065     0.87400
C2352       C  0.95616817  0.03068164  0.88025127     0.87400
C2353       C  0.97111493  0.45059409  0.87382183     0.87400
C2354       C  0.53461548  0.04389984  0.87569572     0.87600
O2355       O  0.53711729  0.48107062  0.58853301    -0.74700
O2356       O  0.96480459  0.02915936  0.58504112    -0.74800
O2357       O  0.52239444  0.04183503  0.59181380    -0.74800
O2358       O  0.97700700  0.46982037  0.59158864    -0.74900
O2359       O  0.97694618  0.46895216  0.65328760    -0.74800
O2360       O  0.52138994  0.03965075  0.65332597    -0.74800
O2361       O  0.96286584  0.02792606  0.64674073    -0.74800
O2362       O  0.53712744  0.47883281  0.65018947    -0.74800
Ni2363     Ni  0.99898977  0.00466122  0.58289575     1.25400
Ni2364     Ni  0.99827634  0.00301456  0.64893222     1.25400
C2365       C  0.54846316  0.47146890  0.61857012     0.87400
C2366       C  0.95251890  0.03693376  0.61548505     0.87400
C2367       C  0.52932379  0.05274281  0.62386044     0.87400
C2368       C  0.96880260  0.45797261  0.62218780     0.87600
N2369       N  0.65579286  0.20078821  0.99759759    -0.36900
N2370       N  0.65982702  0.24370638  0.93948951    -0.57500
N2371       N  0.65752576  0.29157522  0.99618779    -0.36900
N2372       N  0.65661359  0.24659667  0.55399913    -0.57500
C2373       C  0.64940917  0.18393336  0.96745197     0.26700
C2374       C  0.64917730  0.18546314  0.52695292     0.26700
C2375       C  0.66615843  0.30690979  0.96606245     0.26700
C2376       C  0.66496935  0.30789628  0.52673098     0.26700
C2377       C  0.66795432  0.21862811  0.92104591     0.35300
C2378       C  0.67058910  0.26654221  0.92003027     0.35300
C2379       C  0.66399561  0.22243873  0.57373810     0.35300
C2380       C  0.66533047  0.27019029  0.57419205     0.35300
C2381       C  0.63504841  0.15859596  0.97873844    -0.22200
C2382       C  0.63565333  0.15957380  0.51598275    -0.22200
C2383       C  0.67753505  0.33378985  0.97761562    -0.22200
C2384       C  0.67792284  0.33398752  0.51621839    -0.22200
C2385       C  0.68461956  0.22537142  0.89029242    -0.23300
C2386       C  0.68742470  0.25561908  0.89066180    -0.23300
C2387       C  0.67853068  0.23045358  0.60599050    -0.23300
C2388       C  0.68044567  0.26077365  0.60550064    -0.23300
C2389       C  0.65863308  0.19010837  0.93078539    -0.18600
C2390       C  0.65496676  0.19379789  0.56414311    -0.18600
C2391       C  0.65953694  0.29979107  0.56403476    -0.18600
C2392       C  0.66493243  0.29687284  0.92854114    -0.18600
H2393       H  0.62774444  0.14023988  0.96177781     0.14300
H2394       H  0.62549133  0.14355395  0.53369324     0.14300
H2395       H  0.68783215  0.35024807  0.96050832     0.14300
H2396       H  0.68567132  0.35128947  0.53440716     0.14300
H2397       H  0.69458482  0.21011068  0.87052189     0.12600
H2398       H  0.70131317  0.26798592  0.87214222     0.12600
H2399       H  0.68737562  0.21595813  0.62706788     0.12600
H2400       H  0.69243253  0.27416644  0.62535016     0.12600
H2401       H  0.66945943  0.21917472  0.99814400     0.25800
H2402       H  0.64661598  0.27147992  0.99558808     0.25800
C2403       C  0.87404785  0.36949219  0.86470722     0.86200
C2404       C  0.87283245  0.34226055  0.88923395    -0.54100
C2405       C  0.84497554  0.33421218  0.89847100     0.09100
C2406       C  0.82035232  0.35383775  0.88161382     0.20000
C2407       C  0.85463709  0.36057886  0.83084792    -0.54800
C2408       C  0.82559477  0.35404222  0.83916417     0.09200
C2409       C  0.85591641  0.39288469  0.88570750    -0.54300
C2410       C  0.82749375  0.38576055  0.89459645     0.09800
H2411       H  0.89214276  0.33013102  0.89900278     0.14300
H2412       H  0.79888968  0.34473202  0.88873091     0.00000
H2413       H  0.86331219  0.35843771  0.80300082     0.14600
H2414       H  0.86646520  0.41314138  0.89437257     0.14400
C2415       C  0.87138362  0.37446883  0.62136978     0.86200
C2416       C  0.85238289  0.39618615  0.59945317    -0.54100
C2417       C  0.82451007  0.38732946  0.59150496     0.09100
C2418       C  0.81864370  0.35534469  0.60385576     0.20000
C2419       C  0.85193308  0.36531844  0.65497646    -0.54800
C2420       C  0.82322912  0.35700132  0.64630007     0.09200
C2421       C  0.87184300  0.34638011  0.59709051    -0.54300
C2422       C  0.84442313  0.33611392  0.58809778     0.09800
H2423       H  0.86091450  0.41722591  0.59039837     0.14300
H2424       H  0.79726680  0.34613496  0.59490771     0.00000
H2425       H  0.86060994  0.36496916  0.68294338     0.14600
H2426       H  0.89182646  0.33560892  0.58687809     0.14400
C2427       C  0.62205375  0.13793511  0.63154709     0.86200
C2428       C  0.63689756  0.11344576  0.60880444    -0.54100
C2429       C  0.66386983  0.11959205  0.59565285     0.09100
C2430       C  0.67495516  0.15027659  0.60673713     0.20000
C2431       C  0.64526821  0.14519726  0.66239689    -0.54800
C2432       C  0.67408458  0.15002738  0.65004772     0.09200
C2433       C  0.62303716  0.16555666  0.60715794    -0.54300
C2434       C  0.65045689  0.17176744  0.59394629     0.09800
H2435       H  0.62649102  0.09227236  0.60314606     0.14300
H2436       H  0.69509568  0.15682221  0.59251456     0.00000
H2437       H  0.63931182  0.14791478  0.69119264     0.14600
H2438       H  0.60360352  0.17847342  0.59949661     0.14400
C2439       C  0.62944546  0.12844030  0.86715292     0.86200
C2440       C  0.62873253  0.15687987  0.89072141    -0.54100
C2441       C  0.65583215  0.16665405  0.90137123     0.09100
C2442       C  0.68188811  0.14783709  0.88569865     0.20000
C2443       C  0.64915201  0.13714348  0.83365848    -0.54800
C2444       C  0.67782833  0.14562097  0.84260084     0.09200
C2445       C  0.64841038  0.10669241  0.88907477    -0.54300
C2446       C  0.67570756  0.11617047  0.89811711     0.09800
H2447       H  0.60869927  0.16836024  0.89949740     0.14300
H2448       H  0.70288836  0.15698118  0.89610316     0.00000
H2449       H  0.64076630  0.13644663  0.80557291     0.14600
H2450       H  0.64103801  0.08463861  0.89611303     0.14400
C2451       C  0.74575396  0.46574821  0.51237022     0.02000
C2452       C  0.75471018  0.47287891  0.97429717     0.01900
C2453       C  0.74358214  0.99766587  0.95919042    -0.18600
C2454       C  0.72574035  0.01898861  0.97746945     0.02000
C2455       C  0.71093560  0.00983740  0.51067091     0.01900
C2456       C  0.71997041  0.98397938  0.52834719    -0.18600
H2457       H  0.71350065  0.98017173  0.55686308     0.04000
H2458       H  0.75215076  0.00190529  0.93178535     0.04000
N2459       N  0.83340712  0.30232654  0.99337972    -0.36900
N2460       N  0.84268861  0.25623693  0.93480865    -0.57500
N2461       N  0.85039827  0.21210188  0.99146295    -0.36900
N2462       N  0.83999180  0.25805432  0.55027859    -0.57500
C2463       C  0.83518991  0.31975294  0.96323714     0.26700
C2464       C  0.83444082  0.32009968  0.52307659     0.26700
C2465       C  0.84321460  0.19577873  0.96086641     0.26700
C2466       C  0.84069157  0.19665475  0.52126752     0.26700
C2467       C  0.84565027  0.28112339  0.91451828     0.35300
C2468       C  0.85242012  0.23331006  0.91316430     0.35300
C2469       C  0.84837369  0.28260243  0.56916184     0.35300
C2470       C  0.85487615  0.23523260  0.56568047     0.35300
C2471       C  0.83597070  0.34899677  0.97464656    -0.22200
C2472       C  0.83703786  0.34894856  0.51148154    -0.22200
C2473       C  0.82862929  0.17063643  0.97225617    -0.22200
C2474       C  0.82616162  0.17104443  0.51098175    -0.22200
C2475       C  0.85691773  0.27419073  0.88013253    -0.23300
C2476       C  0.86183489  0.24471542  0.87966561    -0.23300
C2477       C  0.86873115  0.27532829  0.59630078    -0.23300
C2478       C  0.87385896  0.24565461  0.59252956    -0.23300
C2479       C  0.83997528  0.31053884  0.92612888    -0.18600
C2480       C  0.84006144  0.31175388  0.56012387    -0.18600
C2481       C  0.84889731  0.20522285  0.55813748    -0.18600
C2482       C  0.85087924  0.20276072  0.92334298    -0.18600
H2483       H  0.84025090  0.36821391  0.95847825     0.14300
H2484       H  0.84155431  0.36839950  0.52779253     0.14300
H2485       H  0.81930068  0.15355957  0.95473558     0.14300
H2486       H  0.81669904  0.15482073  0.52916653     0.14300
H2487       H  0.86212424  0.28884401  0.85760548     0.12600
H2488       H  0.87168301  0.23479363  0.85610703     0.12600
H2489       H  0.88039686  0.28985188  0.61508879     0.12600
H2490       H  0.89087975  0.23346360  0.60627773     0.12600
H2491       H  0.83330897  0.27946119  0.99302803     0.25800
H2492       H  0.86339079  0.23102131  0.99172241     0.25800
N2493       N  0.70402612  0.33062340  0.74262047    -0.36900
N2494       N  0.74637664  0.33704253  0.68321194    -0.57500
N2495       N  0.79597522  0.34094332  0.74223699    -0.36900
N2496       N  0.74906884  0.33473774  0.80154849    -0.57500
C2497       C  0.68659084  0.32524014  0.71277363     0.26700
C2498       C  0.68759030  0.32492137  0.77295331     0.26700
C2499       C  0.80443076  0.35711513  0.71264527     0.26700
C2500       C  0.80675205  0.35517476  0.77274144     0.26700
C2501       C  0.72063385  0.34358700  0.66510362     0.35300
C2502       C  0.76844271  0.34963405  0.66367886     0.35300
C2503       C  0.72362064  0.34198173  0.81979706     0.35300
C2504       C  0.77116812  0.34785375  0.82086274     0.35300
C2505       C  0.65964214  0.31485637  0.72448551    -0.22200
C2506       C  0.65985547  0.31582210  0.76207062    -0.22200
C2507       C  0.81747741  0.38282831  0.72479216    -0.22200
C2508       C  0.81931477  0.38149687  0.76253692    -0.22200
C2509       C  0.72635294  0.36038841  0.63432882    -0.23300
C2510       C  0.75611628  0.36536960  0.63478467    -0.23300
C2511       C  0.72947093  0.36026908  0.84970301    -0.23300
C2512       C  0.75917351  0.36517836  0.84892439    -0.23300
C2513       C  0.69190466  0.33546923  0.67673945    -0.18600
C2514       C  0.69497346  0.33283252  0.80954853    -0.18600
C2515       C  0.80133410  0.34835153  0.81015369    -0.18600
C2516       C  0.79868994  0.35120201  0.67479508    -0.18600
H2517       H  0.64072379  0.30933188  0.70826026     0.14300
H2518       H  0.64060305  0.31278595  0.77887683     0.14300
H2519       H  0.82254170  0.40169686  0.70812459     0.14300
H2520       H  0.82626573  0.39918897  0.78079198     0.14300
H2521       H  0.71070635  0.37007092  0.61512540     0.12600
H2522       H  0.76669381  0.38169143  0.61852068     0.12600
H2523       H  0.71387875  0.37083287  0.86848653     0.12600
H2524       H  0.77018102  0.38186980  0.86493144     0.12600
H2525       H  0.72377084  0.34221982  0.74268577     0.25800
H2526       H  0.78463906  0.32096755  0.74157974     0.25800
C2527       C  0.63121073  0.36238256  0.87048069     0.86200
C2528       C  0.61053202  0.34055255  0.85176396    -0.54100
C2529       C  0.62157450  0.31278069  0.84589447     0.09100
C2530       C  0.65467491  0.31031967  0.85599935     0.20000
C2531       C  0.64349675  0.34600273  0.90484788    -0.54800
C2532       C  0.65616938  0.31842091  0.89793309     0.09200
C2533       C  0.65778840  0.36329886  0.84405184    -0.54300
C2534       C  0.67018149  0.33627802  0.83656557     0.09800
H2535       H  0.58787795  0.34671140  0.84470285     0.14300
H2536       H  0.66374590  0.28898138  0.84729065     0.00000
H2537       H  0.64031478  0.35522877  0.93234488     0.14600
H2538       H  0.66650688  0.38296885  0.83153295     0.14400
C2539       C  0.62880192  0.37030023  0.61717500     0.86200
C2540       C  0.65599382  0.36926915  0.64345239    -0.54100
C2541       C  0.66537575  0.34137364  0.65243830     0.09100
C2542       C  0.64608988  0.31694579  0.63511906     0.20000
C2543       C  0.63914694  0.35089815  0.58390249    -0.54800
C2544       C  0.64889658  0.32265460  0.59274168     0.09200
C2545       C  0.60534755  0.35217318  0.63613101    -0.54300
C2546       C  0.61369475  0.32468539  0.64606801     0.09800
H2547       H  0.66792103  0.38852303  0.65302839     0.14300
H2548       H  0.65205892  0.29490448  0.64524126     0.00000
H2549       H  0.63845363  0.35918698  0.55595796     0.14600
H2550       H  0.58338216  0.36105526  0.64235726     0.14400
C2551       C  0.87099653  0.13697737  0.61788267     0.86200
C2552       C  0.84306261  0.13818083  0.64220424    -0.54100
C2553       C  0.83293805  0.16618235  0.65006895     0.09100
C2554       C  0.85180732  0.19077908  0.63173848     0.20000
C2555       C  0.86197214  0.15436247  0.58300886    -0.54800
C2556       C  0.85276685  0.18292031  0.58933025     0.09200
C2557       C  0.89266931  0.15643902  0.63895130    -0.54300
C2558       C  0.88415460  0.18501203  0.64539304     0.09800
H2559       H  0.83206711  0.11899535  0.65308556     0.14300
H2560       H  0.84269971  0.21305811  0.63743224     0.00000
H2561       H  0.86458527  0.14508362  0.55539253     0.14600
H2562       H  0.91377659  0.14748242  0.64838068     0.14400
C2563       C  0.87262196  0.12786777  0.87139067     0.86200
C2564       C  0.89564417  0.14431720  0.84918895    -0.54100
C2565       C  0.88760143  0.17160802  0.83851361     0.09100
C2566       C  0.85591275  0.18077920  0.85181611     0.20000
C2567       C  0.86614552  0.14937863  0.90465177    -0.54800
C2568       C  0.85687488  0.17762107  0.89490254     0.09200
C2569       C  0.84378061  0.12895295  0.84852623    -0.54300
C2570       C  0.83550777  0.15649450  0.83721994     0.09800
H2571       H  0.91740139  0.13503058  0.84269778     0.14300
H2572       H  0.84653627  0.20135416  0.84101069     0.00000
H2573       H  0.86952438  0.14328977  0.93322770     0.14600
H2574       H  0.83116046  0.10947886  0.84125340     0.14400
C2575       C  0.52520487  0.26535245  0.73331341     0.02000
C2576       C  0.52625227  0.25791425  0.77133463     0.01900
C2577       C  0.00260644  0.24515512  0.78506920    -0.18600
C2578       C  0.97756978  0.23843495  0.76358068     0.02000
C2579       C  0.97738625  0.24508416  0.72533456     0.01900
C2580       C  0.00165215  0.25946312  0.71009920    -0.18600
H2581       H  0.00154221  0.26468430  0.68081164     0.04000
H2582       H  0.00315889  0.23896114  0.81401566     0.04000
N2583       N  0.79846772  0.16797109  0.74454857    -0.36900
N2584       N  0.75339684  0.16706695  0.68580061    -0.57500
N2585       N  0.70837329  0.15851975  0.74553292    -0.36900
N2586       N  0.75556055  0.16101398  0.80410209    -0.57500
C2587       C  0.81475100  0.17595560  0.71470606     0.26700
C2588       C  0.81542799  0.17292475  0.77513317     0.26700
C2589       C  0.69721320  0.14497828  0.71454265     0.26700
C2590       C  0.69775410  0.14360303  0.77538813     0.26700
C2591       C  0.77839968  0.16545044  0.66476243     0.35300
C2592       C  0.73051524  0.15856497  0.66370944     0.35300
C2593       C  0.78093001  0.15551635  0.82325035     0.35300
C2594       C  0.73303434  0.15141605  0.82548371     0.35300
C2595       C  0.84172057  0.18614231  0.72665081    -0.22200
C2596       C  0.84167564  0.18550329  0.76432027    -0.22200
C2597       C  0.68194780  0.12010363  0.72501016    -0.22200
C2598       C  0.68283185  0.11906229  0.76290203    -0.22200
C2599       C  0.77165071  0.15619071  0.62939439    -0.23300
C2600       C  0.74201991  0.15080382  0.62904623    -0.23300
C2601       C  0.77464008  0.14255424  0.85666373    -0.23300
C2602       C  0.74480274  0.13877795  0.85724339    -0.23300
C2603       C  0.80765167  0.17087767  0.67699207    -0.18600
C2604       C  0.80977883  0.16222128  0.81127906    -0.18600
C2605       C  0.70294327  0.14962063  0.81384429    -0.18600
C2606       C  0.70096338  0.15326377  0.67663062    -0.18600
H2607       H  0.86043389  0.19182473  0.71025229     0.14300
H2608       H  0.85980120  0.19265637  0.78099543     0.14300
H2609       H  0.67220915  0.10356790  0.70710825     0.14300
H2610       H  0.67528991  0.10109264  0.77945565     0.14300
H2611       H  0.78688250  0.15113997  0.60698192     0.12600
H2612       H  0.73274807  0.13739675  0.60744985     0.12600
H2613       H  0.78989405  0.13495890  0.87774087     0.12600
H2614       H  0.73428692  0.12498467  0.87707854     0.12600
H2615       H  0.77904496  0.15583334  0.74363306     0.25800
H2616       H  0.72065472  0.17790908  0.74638052     0.25800
C2617       C  0.90914419  0.18938666  0.81736515    -0.06400
C2618       C  0.92049250  0.21502230  0.83372976    -0.17600
C2619       C  0.93936454  0.23334273  0.81427358     0.10800
C2620       C  0.95292505  0.22266705  0.78147378    -0.06400
C2621       C  0.94476075  0.19496551  0.76745664    -0.17600
C2622       C  0.92203251  0.17901662  0.78368540     0.10800
S2623       S  0.94370328  0.27041418  0.83181497    -0.32600
S2624       S  0.91216340  0.14502355  0.76051818    -0.32600
H2625       H  0.88336347  0.14336374  0.77457806     0.28800
H2626       H  0.94966138  0.28301362  0.79716774     0.28800
H2627       H  0.91522970  0.22071999  0.86211856     0.19400
H2628       H  0.95598278  0.18571153  0.74341963     0.19400
C2629       C  0.90682593  0.20622204  0.66154135    -0.06400
C2630       C  0.93686513  0.19982899  0.65332936    -0.17600
C2631       C  0.96002910  0.21257511  0.67292307     0.10800
C2632       C  0.95377927  0.23426777  0.70010873    -0.06400
C2633       C  0.92448374  0.24447147  0.70436547    -0.17600
C2634       C  0.90089319  0.23123987  0.68485211     0.10800
S2635       S  0.99688552  0.19844051  0.66349357    -0.32600
S2636       S  0.86465749  0.24822664  0.68910368    -0.32600
H2637       H  0.87045317  0.26492710  0.72136464     0.28800
H2638       H  0.50394967  0.19750400  0.70208604     0.28800
H2639       H  0.94270092  0.18358171  0.63225616     0.19400
H2640       H  0.92017123  0.26259381  0.72351764     0.19400
C2641       C  0.59355600  0.30733231  0.67031804    -0.06400
C2642       C  0.57916573  0.32260325  0.69960500    -0.17600
C2643       C  0.55661285  0.30973459  0.71998133     0.10800
C2644       C  0.54986239  0.27983659  0.71377933    -0.06400
C2645       C  0.56509017  0.26391736  0.68587923    -0.17600
C2646       C  0.58642725  0.27750747  0.66356898     0.10800
S2647       S  0.53556596  0.33343781  0.75087556    -0.32600
S2648       S  0.60192487  0.25750460  0.62459988    -0.32600
H2649       H  0.59012734  0.22979776  0.63321489     0.28800
H2650       H  0.50801977  0.32067784  0.74281299     0.28800
H2651       H  0.58443269  0.34548641  0.70539720     0.19400
H2652       H  0.55918358  0.24114359  0.68057657     0.19400
C2653       C  0.60056928  0.28867793  0.83470756    -0.06400
C2654       C  0.57166728  0.29196422  0.84864055    -0.17600
C2655       C  0.54730417  0.28317611  0.82808336     0.10800
C2656       C  0.55157217  0.26617076  0.79546541    -0.06400
C2657       C  0.58050490  0.25693867  0.78610185    -0.17600
C2658       C  0.60526576  0.26786874  0.80553152     0.10800
S2659       S  0.51213735  0.29840355  0.84286248    -0.32600
S2660       S  0.64157200  0.25338039  0.79408427    -0.32600
H2661       H  0.63308883  0.23635818  0.76306149     0.28800
H2662       H  0.50036067  0.30231945  0.80720345     0.28800
H2663       H  0.56773003  0.30553844  0.87312570     0.19400
H2664       H  0.58361443  0.24183807  0.76291983     0.19400
C2665       C  0.69682885  0.09532967  0.91514142    -0.06400
C2666       C  0.70415107  0.09954134  0.95227262    -0.17600
C2667       C  0.71432525  0.07600964  0.97392966     0.10800
C2668       C  0.71803208  0.04715243  0.95739436    -0.06400
C2669       C  0.71250191  0.04424397  0.91910558    -0.17600
C2670       C  0.70287095  0.06784805  0.89792002     0.10800
S2671       S  0.71497345  0.08265474  0.52229140    -0.32600
S2672       S  0.69662664  0.06077242  0.84928078    -0.32600
H2673       H  0.70365464  0.08943572  0.83833679     0.28800
H2674       H  0.67245328  0.05402398  0.56994793     0.28800
H2675       H  0.69889119  0.12059163  0.96548916     0.19400
H2676       H  0.71392804  0.02290384  0.90537145     0.19400
C2677       C  0.67867896  0.09701516  0.57310755    -0.06400
C2678       C  0.65972681  0.08509041  0.53546099    -0.17600
C2679       C  0.66773489  0.05225821  0.51586930     0.10800
C2680       C  0.69590538  0.03154322  0.53321639    -0.06400
C2681       C  0.71476570  0.04309991  0.57108694    -0.19200
C2682       C  0.70613155  0.07565603  0.59121674     0.10800
S2683       S  0.64777493  0.03911597  0.97974576    -0.32600
S2684       S  0.72160612  0.08242242  0.63606012    -0.32600
H2685       H  0.69387256  0.08977147  0.65112880     0.28800
H2686       H  0.65875779  0.01004122  0.98275465     0.28800
H2687       H  0.64057973  0.09711225  0.52567747     0.19400
H2688       H  0.73297764  0.03000340  0.58185611     0.19400
C2689       C  0.80249107  0.40767057  0.57385357    -0.06400
C2690       C  0.77938263  0.39597090  0.55227783    -0.17600
C2691       C  0.75766799  0.41453263  0.53719260     0.10800
C2692       C  0.76293702  0.44507238  0.53564420    -0.06400
C2693       C  0.78529107  0.45699506  0.55782772    -0.17600
C2694       C  0.80302627  0.43879806  0.57970307     0.10800
S2695       S  0.72240461  0.39855042  0.52612558    -0.32600
S2696       S  0.82189961  0.45667565  0.61781300    -0.32600
H2697       H  0.81750832  0.43327923  0.64253995     0.28800
H2698       H  0.70508737  0.42515296  0.02522906     0.28800
H2699       H  0.77674977  0.37234613  0.54947878     0.19400
H2700       H  0.78756202  0.48077795  0.55996095     0.19400
C2701       C  0.80748187  0.40763253  0.91501192    -0.06400
C2702       C  0.81590794  0.43777172  0.91645982    -0.17600
C2703       C  0.80076206  0.45867713  0.93805085     0.10800
C2704       C  0.77316397  0.45144006  0.95299133    -0.06400
C2705       C  0.76244495  0.42298788  0.94722843    -0.17600
C2706       C  0.78053189  0.40026453  0.93304920     0.10800
S2707       S  0.81851377  0.49364125  0.94647664    -0.32600
S2708       S  0.76941933  0.36303566  0.94337254    -0.32600
H2709       H  0.73936415  0.36915457  0.95029531     0.28800
H2710       H  0.80341517  0.99855199  0.98088662     0.28800
H2711       H  0.83496202  0.44577531  0.90193991     0.19400
H2712       H  0.74021551  0.41832097  0.95578167     0.19400
C2713       C  0.57334528  0.44964355  0.61514548    -0.06400
C2714       C  0.57148046  0.42871568  0.58629347    -0.17600
C2715       C  0.59060030  0.40408799  0.58399468     0.10800
C2716       C  0.61433591  0.40088513  0.60988123    -0.06400
C2717       C  0.61731887  0.42356182  0.63712645    -0.17600
C2718       C  0.59728649  0.44752003  0.64006790     0.10800
S2719       S  0.58086034  0.37519020  0.55118690    -0.32600
S2720       S  0.60316025  0.47406190  0.67692667    -0.32600
H2721       H  0.59085432  0.49835217  0.65811404     0.28800
H2722       H  0.55739578  0.38992389  0.53320043     0.28800
H2723       H  0.55311373  0.43032743  0.56708751     0.19400
H2724       H  0.63387149  0.42190721  0.65858127     0.19400
C2725       C  0.54766619  0.08004080  0.62865728    -0.06400
C2726       C  0.56327264  0.08358431  0.66220352    -0.17600
C2727       C  0.58450130  0.10571965  0.66756220     0.10800
C2728       C  0.59052524  0.12605376  0.63883233    -0.06400
C2729       C  0.57163205  0.12465285  0.60718372    -0.17600
C2730       C  0.55083912  0.10211452  0.60171638     0.10800
S2731       S  0.60487394  0.10502591  0.71048361    -0.32600
S2732       S  0.53011882  0.10224196  0.55901745    -0.32600
H2733       H  0.50333844  0.09464101  0.57608901     0.28800
H2734       H  0.58308201  0.09083472  0.73144803     0.28800
H2735       H  0.56051001  0.06744222  0.68380964     0.19400
H2736       H  0.57526005  0.13916299  0.58405240     0.19400
C2737       C  0.88702270  0.10723158  0.61044155    -0.06400
C2738       C  0.88197789  0.08261519  0.63347489    -0.17600
C2739       C  0.90218625  0.05870284  0.63522629     0.10800
C2740       C  0.92786190  0.05878023  0.61310290    -0.06400
C2741       C  0.93148151  0.08157729  0.58773621    -0.17600
C2742       C  0.91242918  0.10604642  0.58686104     0.10800
S2743       S  0.89425629  0.02897727  0.66637986    -0.32600
S2744       S  0.92425473  0.13704058  0.55922174    -0.32600
H2745       H  0.94695483  0.12257105  0.53914555     0.28800
H2746       H  0.90703321  0.00671182  0.64382595     0.28800
H2747       H  0.86340971  0.08242993  0.65222934     0.19400
H2748       H  0.95097121  0.08136371  0.57033871     0.19400
C2749       C  0.94767710  0.43284070  0.62356833    -0.06400
C2750       C  0.92667947  0.43407984  0.65202601    -0.17600
C2751       C  0.90356735  0.41391086  0.65454105     0.10800
C2752       C  0.90133412  0.39003714  0.62856648    -0.06400
C2753       C  0.92385166  0.38797789  0.60106388    -0.17600
C2754       C  0.94681789  0.40873564  0.59848441     0.10800
S2755       S  0.87558219  0.42239479  0.68872637    -0.32600
S2756       S  0.97395308  0.40327179  0.56237913    -0.32600
H2757       H  0.99744503  0.41596510  0.58227297     0.28800
H2758       H  0.89068068  0.44424409  0.70897996     0.28800
H2759       H  0.92716017  0.45258919  0.67125419     0.19400
H2760       H  0.92288364  0.37130205  0.57951952     0.19400
C2761       C  0.59949014  0.11286912  0.86097175    -0.06400
C2762       C  0.57722962  0.11595003  0.88875229    -0.17600
C2763       C  0.55527523  0.09460372  0.89416311     0.10800
C2764       C  0.55486129  0.06925122  0.87128386    -0.06400
C2765       C  0.57506758  0.06715824  0.84195958    -0.17600
C2766       C  0.59748514  0.08773687  0.83705079     0.10800
S2767       S  0.52935186  0.10056154  0.93160476    -0.32600
S2768       S  0.62575240  0.07763214  0.80402229    -0.32600
H2769       H  0.60890766  0.05797795  0.78239681     0.28800
H2770       H  0.50569320  0.08545593  0.91494863     0.28800
H2771       H  0.57791818  0.13367881  0.90890573     0.19400
H2772       H  0.57489227  0.04760971  0.82438287     0.19400
C2773       C  0.57205003  0.43962855  0.87899148    -0.06400
C2774       C  0.56741554  0.41462976  0.90068002    -0.17600
C2775       C  0.58744343  0.39071092  0.90088964     0.10800
C2776       C  0.61334891  0.39122453  0.87831765    -0.06400
C2777       C  0.61880457  0.41750213  0.85852823    -0.17600
C2778       C  0.59861478  0.44147569  0.85870398     0.10800
S2779       S  0.57775053  0.35881297  0.92809205    -0.32600
S2780       S  0.60817897  0.47377312  0.83259906    -0.32600
H2781       H  0.59222456  0.49423515  0.85459931     0.28800
H2782       H  0.55488888  0.37228065  0.94893902     0.28800
H2783       H  0.54711760  0.41331934  0.91650471     0.19400
H2784       H  0.63826684  0.41966254  0.84163313     0.19400
C2785       C  0.90513230  0.38256361  0.85943888    -0.06400
C2786       C  0.92475263  0.38190104  0.89041031    -0.17600
C2787       C  0.94755147  0.40241435  0.89530277     0.10800
C2788       C  0.95087397  0.42511542  0.86944330    -0.06400
C2789       C  0.93332440  0.42451889  0.83732698    -0.17600
C2790       C  0.91064137  0.40422437  0.83209875     0.10800
S2791       S  0.97130964  0.39859800  0.93517187    -0.32600
S2792       S  0.88722075  0.41031477  0.79235426    -0.32600
H2793       H  0.90887503  0.42337008  0.77003113     0.28800
H2794       H  0.99709086  0.40697470  0.91631883     0.28800
H2795       H  0.92123535  0.36683561  0.91293343     0.19400
H2796       H  0.93574481  0.44177054  0.81702896     0.19400
C2797       C  0.88575761  0.09667455  0.87722113    -0.06400
C2798       C  0.89932666  0.08964426  0.91117045    -0.17600
C2799       C  0.92085963  0.06715587  0.91381868     0.10800
C2800       C  0.92973153  0.05091673  0.88158053    -0.06400
C2801       C  0.91399622  0.05564249  0.84876664    -0.17600
C2802       C  0.89218499  0.07779984  0.84604602     0.10800
S2803       S  0.93747173  0.06243317  0.95889877    -0.32600
S2804       S  0.87569699  0.08321786  0.80077152    -0.32600
H2805       H  0.88719358  0.05774892  0.78305242     0.28800
H2806       H  0.93087600  0.03214677  0.96013290     0.28800
H2807       H  0.89499865  0.10284612  0.93566837     0.19400
H2808       H  0.91990100  0.04279057  0.82435401     0.19400
O2809       O  0.53664494  0.97132773  0.40951050    -0.74700
O2810       O  0.96721133  0.52081857  0.41002922    -0.74800
O2811       O  0.97649523  0.96397983  0.40984011    -0.74800
O2812       O  0.52625602  0.52973162  0.40859927    -0.74900
O2813       O  0.52502300  0.52882832  0.34684523    -0.74800
O2814       O  0.97769995  0.96513705  0.34815772    -0.74800
O2815       O  0.96517535  0.52084765  0.34854785    -0.74800
O2816       O  0.53695191  0.97188058  0.34777538    -0.74800
Ni2817     Ni  0.00174651  0.49608684  0.40985070     1.25400
Ni2818     Ni  0.50189115  0.99720038  0.34633911     1.25400
C2819       C  0.54773336  0.96255612  0.37864638     0.87400
C2820       C  0.95445636  0.52903022  0.38025603     0.87400
C2821       C  0.96856183  0.95355652  0.37795131     0.87400
C2822       C  0.53364742  0.54064359  0.37709284     0.87600
O2823       O  0.53352595  0.98262797  0.09213234    -0.74700
O2824       O  0.96267486  0.52917872  0.09569541    -0.74800
O2825       O  0.52387032  0.54102681  0.09290096    -0.74800
O2826       O  0.97585558  0.96979658  0.09030841    -0.74900
O2827       O  0.97576969  0.96909184  0.15198707    -0.74800
O2828       O  0.52164468  0.53912920  0.15443422    -0.74800
O2829       O  0.96202918  0.52912844  0.15744806    -0.74800
O2830       O  0.53305742  0.98028817  0.15380240    -0.74800
Ni2831     Ni  0.99763393  0.50583016  0.09298175     1.25400
Ni2832     Ni  0.99786365  0.50457676  0.15902399     1.25400
C2833       C  0.54446737  0.97284837  0.12231323     0.87400
C2834       C  0.95108046  0.53768803  0.12627869     0.87400
C2835       C  0.53030772  0.55191161  0.12511778     0.87400
C2836       C  0.96740072  0.95820574  0.12094145     0.87600
N2837       N  0.65610831  0.69968856  0.49896508    -0.36900
N2838       N  0.65888328  0.74271060  0.44076279    -0.57500
N2839       N  0.65633118  0.79009984  0.49785402    -0.36900
N2840       N  0.65350215  0.74882630  0.05543340    -0.57500
C2841       C  0.64898527  0.68291781  0.46898146     0.26700
C2842       C  0.64635456  0.68761078  0.02839754     0.26700
C2843       C  0.66505464  0.80560274  0.46785550     0.26700
C2844       C  0.66108315  0.81036220  0.02819227     0.26700
C2845       C  0.66691918  0.71763591  0.42232114     0.35300
C2846       C  0.67008208  0.76551737  0.42171021     0.35300
C2847       C  0.66085046  0.72466719  0.07525670     0.35300
C2848       C  0.66207129  0.77248989  0.07564870     0.35300
C2849       C  0.63534345  0.65732547  0.48070738    -0.22200
C2850       C  0.63322064  0.66152055  0.01717585    -0.22200
C2851       C  0.67633165  0.83243031  0.47950799    -0.22200
C2852       C  0.67361534  0.83664831  0.01765205    -0.22200
C2853       C  0.68409049  0.72432304  0.39194487    -0.23300
C2854       C  0.68718325  0.75458126  0.39256093    -0.23300
C2855       C  0.67514662  0.73275439  0.10763289    -0.23300
C2856       C  0.67707815  0.76306256  0.10705018    -0.23300
C2857       C  0.65709602  0.68926442  0.43197463    -0.18600
C2858       C  0.65220830  0.69589757  0.06549084    -0.18600
C2859       C  0.65608986  0.80214547  0.06556947    -0.18600
C2860       C  0.66432870  0.79580794  0.43032506    -0.18600
H2861       H  0.62778808  0.63894561  0.46397519     0.14300
H2862       H  0.62341362  0.64503208  0.03460189     0.14300
H2863       H  0.68684229  0.84888503  0.46261243     0.14300
H2864       H  0.68134922  0.85395971  0.03584198     0.14300
H2865       H  0.69412085  0.70905394  0.37223806     0.12600
H2866       H  0.70110986  0.76699582  0.37411702     0.12600
H2867       H  0.68390291  0.71832274  0.12883052     0.12600
H2868       H  0.68911821  0.77641523  0.12688506     0.12600
H2869       H  0.66946887  0.71830078  0.49912355     0.25800
H2870       H  0.64561259  0.76989380  0.49722554     0.25800
C2871       C  0.87068601  0.87202844  0.36571464     0.86200
C2872       C  0.87064451  0.84349918  0.38821528    -0.54100
C2873       C  0.84314812  0.83399261  0.39714569     0.09100
C2874       C  0.81773882  0.85338392  0.38161083     0.20000
C2875       C  0.85148391  0.86399887  0.33130688    -0.54800
C2876       C  0.82278492  0.85572566  0.33934678     0.09200
C2877       C  0.85176596  0.89356138  0.38837209    -0.54300
C2878       C  0.82369478  0.88497837  0.39623750     0.09800
H2879       H  0.89039800  0.83187823  0.39749857     0.14300
H2880       H  0.79651512  0.84344222  0.38831466     0.00000
H2881       H  0.86008519  0.86432328  0.30332320     0.14600
H2882       H  0.86118576  0.91398050  0.39870413     0.14400
C2883       C  0.86847019  0.87592122  0.12187115     0.86200
C2884       C  0.84928236  0.89741661  0.09999714    -0.54100
C2885       C  0.82141841  0.88838930  0.09244570     0.09100
C2886       C  0.81571829  0.85644784  0.10487348     0.20000
C2887       C  0.84913047  0.86691540  0.15573357    -0.54800
C2888       C  0.82041698  0.85846410  0.14722365     0.09200
C2889       C  0.86889135  0.84770836  0.09780743    -0.54300
C2890       C  0.84150641  0.83728320  0.08892909     0.09800
H2891       H  0.85767260  0.91842102  0.09061940     0.14300
H2892       H  0.79430741  0.84714634  0.09620178     0.00000
H2893       H  0.85775212  0.86656913  0.18370471     0.14600
H2894       H  0.88896342  0.83708826  0.08755940     0.14400
C2895       C  0.62172864  0.63836124  0.13187365     0.86200
C2896       C  0.63804623  0.61447468  0.10927275    -0.54100
C2897       C  0.66508568  0.62178279  0.09676065     0.09100
C2898       C  0.67415567  0.65321160  0.10790984     0.20000
C2899       C  0.64406840  0.64693948  0.16298549    -0.54800
C2900       C  0.67270601  0.65287389  0.15110912     0.09200
C2901       C  0.62154675  0.66594682  0.10758445    -0.54300
C2902       C  0.64867525  0.67345170  0.09482613     0.09800
H2903       H  0.62865007  0.59287545  0.10347494     0.14300
H2904       H  0.69402230  0.66120564  0.09420930     0.00000
H2905       H  0.63766365  0.64960032  0.19163555     0.14600
H2906       H  0.60166834  0.67818175  0.09995315     0.14400
C2907       C  0.62746439  0.62673330  0.36958729     0.86200
C2908       C  0.62653342  0.65529954  0.39309981    -0.54100
C2909       C  0.65371772  0.66577950  0.40270543     0.09100
C2910       C  0.67975014  0.64725238  0.38674705     0.20000
C2911       C  0.64650904  0.63563651  0.33555005    -0.54800
C2912       C  0.67508538  0.64480575  0.34378875     0.09200
C2913       C  0.64712720  0.60554807  0.39144047    -0.54300
C2914       C  0.67431094  0.61557850  0.39992879     0.09800
H2915       H  0.60645741  0.66620137  0.40277775     0.14300
H2916       H  0.70076367  0.65683268  0.39649340     0.00000
H2917       H  0.63775680  0.63437603  0.30766093     0.14600
H2918       H  0.64029974  0.58339848  0.39886717     0.14400
C2919       C  0.74300556  0.96603386  0.01292391     0.02000
C2920       C  0.74880584  0.96985076  0.47465151     0.01900
C2921       C  0.74490754  0.49756822  0.45866831    -0.18600
C2922       C  0.72709802  0.51859524  0.47744789     0.02000
C2923       C  0.71808415  0.51342685  0.01201772     0.01900
C2924       C  0.72628046  0.48681886  0.02863052    -0.18600
H2925       H  0.71958208  0.48256873  0.05694220     0.04000
H2926       H  0.75269851  0.50187940  0.43094544     0.04000
N2927       N  0.83181424  0.80270411  0.49260243    -0.36900
N2928       N  0.84171230  0.75586963  0.43453096    -0.57500
N2929       N  0.84951936  0.71203406  0.49115948    -0.36900
N2930       N  0.83731608  0.75874848  0.05205072    -0.57500
C2931       C  0.83521227  0.81988214  0.46245677     0.26700
C2932       C  0.83174166  0.82075694  0.02378218     0.26700
C2933       C  0.84184939  0.69547648  0.46105283     0.26700
C2934       C  0.84118395  0.69700642  0.02265260     0.26700
C2935       C  0.84408984  0.78068597  0.41382993     0.35300
C2936       C  0.85061545  0.73260047  0.41268720     0.35300
C2937       C  0.84550100  0.78358655  0.07061277     0.35300
C2938       C  0.85269970  0.73623973  0.06757032     0.35300
C2939       C  0.83799981  0.84904400  0.47376113    -0.22200
C2940       C  0.83227857  0.84970834  0.01211639    -0.22200
C2941       C  0.82718041  0.67056179  0.47305749    -0.22200
C2942       C  0.82790836  0.67088713  0.01168633    -0.22200
C2943       C  0.85432879  0.77345062  0.37908314    -0.23300
C2944       C  0.85906770  0.74385122  0.37859950    -0.23300
C2945       C  0.86594257  0.77672660  0.09782355    -0.23300
C2946       C  0.87153606  0.74713989  0.09427932    -0.23300
C2947       C  0.83905373  0.81033755  0.42528924    -0.18600
C2948       C  0.83728451  0.81270938  0.06104725    -0.18600
C2949       C  0.84786251  0.70597296  0.05991699    -0.18600
C2950       C  0.84925459  0.70195233  0.42344240    -0.18600
H2951       H  0.84391926  0.86784658  0.45759950     0.14300
H2952       H  0.83519095  0.86945378  0.02839221     0.14300
H2953       H  0.81748001  0.65341842  0.45597411     0.14300
H2954       H  0.81840192  0.65437029  0.02940769     0.14300
H2955       H  0.85910673  0.78807447  0.35636311     0.12600
H2956       H  0.86844864  0.73386198  0.35467071     0.12600
H2957       H  0.87757719  0.79152053  0.11629614     0.12600
H2958       H  0.88892735  0.73534352  0.10788361     0.12600
H2959       H  0.82939051  0.77995426  0.49233920     0.25800
H2960       H  0.86267757  0.73084044  0.49094248     0.25800
N2961       N  0.70134602  0.83146261  0.24401533    -0.36900
N2962       N  0.74342266  0.83951576  0.18492486    -0.57500
N2963       N  0.79285555  0.84354757  0.24293665    -0.36900
N2964       N  0.74663356  0.83496848  0.30241369    -0.57500
C2965       C  0.68412576  0.82599863  0.21404249     0.26700
C2966       C  0.68575897  0.82330031  0.27410007     0.26700
C2967       C  0.80145131  0.85960382  0.21339093     0.26700
C2968       C  0.80324523  0.85799055  0.27337449     0.26700
C2969       C  0.71761020  0.84596594  0.16691224     0.35300
C2970       C  0.76547735  0.85162486  0.16485015     0.35300
C2971       C  0.72114669  0.84081775  0.32126432     0.35300
C2972       C  0.76835522  0.84868359  0.32170525     0.35300
C2973       C  0.65812524  0.81314194  0.22531966    -0.22200
C2974       C  0.65878131  0.81228499  0.26301025    -0.22200
C2975       C  0.81433696  0.88549183  0.22537895    -0.22200
C2976       C  0.81555873  0.88444128  0.26320870    -0.22200
C2977       C  0.72325653  0.86229644  0.13573365    -0.23300
C2978       C  0.75306578  0.86699051  0.13573744    -0.23300
C2979       C  0.72658216  0.85871538  0.35169042    -0.23300
C2980       C  0.75601262  0.86491226  0.35053482    -0.23300
C2981       C  0.68896256  0.83758076  0.17853295    -0.18600
C2982       C  0.69279655  0.83095065  0.31085677    -0.18600
C2983       C  0.79834946  0.85050968  0.31058024    -0.18600
C2984       C  0.79578475  0.85327902  0.17574755    -0.18600
H2985       H  0.63965141  0.80655211  0.20887525     0.14300
H2986       H  0.64022719  0.80681676  0.28006050     0.14300
H2987       H  0.81995337  0.90416038  0.20854184     0.14300
H2988       H  0.82212066  0.90223351  0.28147139     0.14300
H2989       H  0.70756845  0.87168053  0.11634732     0.12600
H2990       H  0.76362272  0.88298548  0.11905278     0.12600
H2991       H  0.71083274  0.86819170  0.37114559     0.12600
H2992       H  0.76654005  0.88161544  0.36697304     0.12600
H2993       H  0.72005068  0.84468230  0.24455877     0.25800
H2994       H  0.78184962  0.82338596  0.24227013     0.25800
C2995       C  0.62970371  0.86096618  0.37235962     0.86200
C2996       C  0.60845427  0.83850026  0.35592787    -0.54100
C2997       C  0.61983457  0.81081338  0.34979850     0.09100
C2998       C  0.65316540  0.80882161  0.35830445     0.20000
C2999       C  0.64329606  0.84533853  0.40659374    -0.54800
C3000       C  0.65568994  0.81752224  0.39985502     0.09200
C3001       C  0.65552572  0.86139341  0.34476300    -0.54300
C3002       C  0.66780432  0.83439171  0.33746658     0.09800
H3003       H  0.58540748  0.84419738  0.35047371     0.14300
H3004       H  0.66244383  0.78754056  0.34997011     0.00000
H3005       H  0.64112901  0.85519167  0.43384548     0.14600
H3006       H  0.66463817  0.88096324  0.33242318     0.14400
C3007       C  0.62556293  0.87251338  0.11939053     0.86200
C3008       C  0.65293735  0.87152976  0.14544750    -0.54100
C3009       C  0.66239260  0.84361921  0.15437478     0.09100
C3010       C  0.64328144  0.81925520  0.13681621     0.20000
C3011       C  0.63579937  0.85329933  0.08589005    -0.54800
C3012       C  0.64577425  0.82506375  0.09446861     0.09200
C3013       C  0.60232619  0.85417850  0.13847274    -0.54300
C3014       C  0.61104165  0.82675551  0.14807720     0.09800
H3015       H  0.66481713  0.89082930  0.15499548     0.14300
H3016       H  0.64928928  0.79721148  0.14671988     0.00000
H3017       H  0.63480344  0.86167669  0.05802136     0.14600
H3018       H  0.58036584  0.86283839  0.14520896     0.14400
C3019       C  0.86976284  0.63869401  0.12239489     0.86200
C3020       C  0.84131291  0.64025744  0.14568266    -0.54100
C3021       C  0.83086440  0.66829353  0.15228209     0.09100
C3022       C  0.84980452  0.69264054  0.13379418     0.20000
C3023       C  0.86131946  0.65534775  0.08652670    -0.54800
C3024       C  0.85163632  0.68400331  0.09165932     0.09200
C3025       C  0.89088256  0.65885868  0.14325689    -0.54300
C3026       C  0.88185034  0.68740300  0.14846160     0.09800
H3027       H  0.83020731  0.62124873  0.15687853     0.14300
H3028       H  0.84055213  0.71498901  0.13886596     0.00000
H3029       H  0.86448051  0.64553353  0.05930470     0.14600
H3030       H  0.91213683  0.65061203  0.15322274     0.14400
C3031       C  0.86962390  0.62544125  0.37331093     0.86200
C3032       C  0.89271166  0.64128238  0.35060177    -0.54100
C3033       C  0.88497838  0.66848468  0.33954539     0.09100
C3034       C  0.85359251  0.67839145  0.35289971     0.20000
C3035       C  0.86379896  0.64762814  0.40621406    -0.54800
C3036       C  0.85484002  0.67599175  0.39586206     0.09200
C3037       C  0.84059638  0.62675563  0.35069828    -0.54300
C3038       C  0.83266862  0.65431304  0.33893904     0.09800
H3039       H  0.91446415  0.63182129  0.34446347     0.14300
H3040       H  0.84461514  0.69899650  0.34191435     0.00000
H3041       H  0.86760358  0.64182165  0.43483041     0.14600
H3042       H  0.82775882  0.60736591  0.34368674     0.14400
C3043       C  0.52530303  0.76515028  0.23604494     0.02000
C3044       C  0.52590127  0.75656507  0.27378193     0.01900
C3045       C  0.99970641  0.74360281  0.28969573    -0.18600
C3046       C  0.97465574  0.73741256  0.26795345     0.02000
C3047       C  0.97403536  0.74588759  0.23034751     0.01900
C3048       C  0.99792070  0.76140001  0.21598911    -0.18600
H3049       H  0.99750551  0.76780796  0.18709312     0.04000
H3050       H  0.00048205  0.73632572  0.31822665     0.04000
N3051       N  0.79611778  0.66829065  0.24610476    -0.36900
N3052       N  0.75136458  0.67027727  0.18744740    -0.57500
N3053       N  0.70565562  0.65984564  0.24705584    -0.36900
N3054       N  0.75283184  0.65993095  0.30484348    -0.57500
C3055       C  0.81260576  0.67697828  0.21677158     0.26700
C3056       C  0.81327752  0.67160386  0.27683254     0.26700
C3057       C  0.69529234  0.64672105  0.21543934     0.26700
C3058       C  0.69442978  0.64445996  0.27615941     0.26700
C3059       C  0.77634506  0.66868378  0.16639968     0.35300
C3060       C  0.72862282  0.66173090  0.16527245     0.35300
C3061       C  0.77811260  0.65384786  0.32401837     0.35300
C3062       C  0.73011690  0.65044880  0.32605590     0.35300
C3063       C  0.83987035  0.68587664  0.22912385    -0.22200
C3064       C  0.83992135  0.68363175  0.26653524    -0.22200
C3065       C  0.68000710  0.62155706  0.22476715    -0.22200
C3066       C  0.67966783  0.62013597  0.26262229    -0.22200
C3067       C  0.76973441  0.65953376  0.13098296    -0.23300
C3068       C  0.74019444  0.65401576  0.13063634    -0.23300
C3069       C  0.77154263  0.64064224  0.35712557    -0.23300
C3070       C  0.74173048  0.63727226  0.35747113    -0.23300
C3071       C  0.80554766  0.67330748  0.17891318    -0.18600
C3072       C  0.80718186  0.66030368  0.31256481    -0.18600
C3073       C  0.69988278  0.64933547  0.31472548    -0.18600
C3074       C  0.69917709  0.65608483  0.17800690    -0.18600
H3075       H  0.85873305  0.69172179  0.21310973     0.14300
H3076       H  0.85837770  0.68964055  0.28313769     0.14300
H3077       H  0.67087583  0.60517117  0.20613568     0.14300
H3078       H  0.67160395  0.60192082  0.27834084     0.14300
H3079       H  0.78504674  0.65429344  0.10871732     0.12600
H3080       H  0.73104061  0.64039609  0.10914626     0.12600
H3081       H  0.78655230  0.63267444  0.37823997     0.12600
H3082       H  0.73109733  0.62351280  0.37705268     0.12600
H3083       H  0.77634728  0.65676787  0.24454985     0.25800
H3084       H  0.71789548  0.67923336  0.24876693     0.25800
C3085       C  0.90691455  0.68620033  0.31932860    -0.06400
C3086       C  0.91753688  0.71169804  0.33651476    -0.17600
C3087       C  0.93657006  0.73043084  0.31812928     0.10800
C3088       C  0.95026658  0.72072967  0.28496844    -0.06400
C3089       C  0.94256487  0.69320265  0.26984513    -0.17600
C3090       C  0.92033643  0.67633615  0.28577151     0.10800
S3091       S  0.94117271  0.76677505  0.33772746    -0.32600
S3092       S  0.91176465  0.64190560  0.26272706    -0.32600
H3093       H  0.88236081  0.64043424  0.27485024     0.28800
H3094       H  0.94544763  0.78067521  0.30348067     0.28800
H3095       H  0.91128701  0.71701820  0.36472622     0.19400
H3096       H  0.95388200  0.68477745  0.24540223     0.19400
C3097       C  0.90392055  0.70913589  0.16425550    -0.06400
C3098       C  0.93388122  0.70378421  0.15504422    -0.17600
C3099       C  0.95690443  0.71581204  0.17554501     0.10800
C3100       C  0.95043012  0.73588356  0.20459816    -0.06400
C3101       C  0.92098290  0.74540513  0.20984607    -0.17600
C3102       C  0.89759030  0.73285471  0.18929669     0.10800
S3103       S  0.99378855  0.70226894  0.16523824    -0.32600
S3104       S  0.86108485  0.74906166  0.19423095    -0.32600
H3105       H  0.86608561  0.76268618  0.22889169     0.28800
H3106       H  0.50098652  0.69509995  0.20389837     0.28800
H3107       H  0.93963718  0.68830648  0.13301128     0.19400
H3108       H  0.91638951  0.76241638  0.23045337     0.19400
C3109       C  0.59168671  0.80900755  0.17250671    -0.06400
C3110       C  0.57835846  0.82347190  0.20311735    -0.17600
C3111       C  0.55704381  0.80970476  0.22463885     0.10800
C3112       C  0.55015907  0.77995441  0.21735799    -0.06400
C3113       C  0.56452768  0.76490044  0.18802947    -0.17600
C3114       C  0.58477317  0.77927669  0.16506754     0.10800
S3115       S  0.53787153  0.83204576  0.25885582    -0.32600
S3116       S  0.59926989  0.76037377  0.12464993    -0.32600
H3117       H  0.58230302  0.73466479  0.12767840     0.28800
H3118       H  0.50994521  0.81941636  0.25296335     0.28800
H3119       H  0.58360919  0.84630168  0.20930328     0.19400
H3120       H  0.55869758  0.74219288  0.18213937     0.19400
C3121       C  0.59938852  0.78610808  0.33954847    -0.06400
C3122       C  0.57057713  0.78854685  0.35373142    -0.17600
C3123       C  0.54638946  0.77898216  0.33330872     0.10800
C3124       C  0.55095925  0.76391937  0.29912554    -0.06400
C3125       C  0.58007334  0.75537420  0.28963508    -0.17600
C3126       C  0.60447090  0.76548477  0.31040047     0.10800
S3127       S  0.51080752  0.79038934  0.35095325    -0.32600
S3128       S  0.64056331  0.74923871  0.30192077    -0.32600
H3129       H  0.63336256  0.73475436  0.26847524     0.28800
H3130       H  0.49976908  0.79933041  0.31637680     0.28800
H3131       H  0.56650523  0.80167276  0.37858774     0.19400
H3132       H  0.58359877  0.74096447  0.26586612     0.19400
C3133       C  0.69602935  0.59499499  0.41659763    -0.06400
C3134       C  0.70402369  0.59908016  0.45364367    -0.17600
C3135       C  0.71535042  0.57556983  0.47466037     0.10800
C3136       C  0.71896134  0.54686954  0.45775319    -0.06400
C3137       C  0.71295872  0.54421953  0.41957466    -0.17600
C3138       C  0.70258374  0.56778758  0.39887637     0.10800
S3139       S  0.71988971  0.58676610  0.02500180    -0.32600
S3140       S  0.69609466  0.56061923  0.35026737    -0.32600
H3141       H  0.69860141  0.58994104  0.33912443     0.28800
H3142       H  0.67729544  0.55651804  0.07051323     0.28800
H3143       H  0.69865638  0.61991883  0.46730227     0.19400
H3144       H  0.71451164  0.52301735  0.40554022     0.19400
C3145       C  0.68181492  0.59973871  0.07465971    -0.06400
C3146       C  0.66431653  0.58753126  0.03610166    -0.17600
C3147       C  0.67379472  0.55503721  0.01637243     0.10800
C3148       C  0.70221920  0.53490870  0.03446001    -0.06400
C3149       C  0.71984041  0.54676276  0.07316326    -0.19200
C3150       C  0.70967421  0.57896936  0.09350089     0.10800
S3151       S  0.64884744  0.53928438  0.48226250    -0.32600
S3152       S  0.72403822  0.58527593  0.13907961    -0.32600
H3153       H  0.69712846  0.59688639  0.15193917     0.28800
H3154       H  0.66195304  0.51098479  0.48084388     0.28800
H3155       H  0.64516673  0.59927407  0.02569342     0.19400
H3156       H  0.73815396  0.53407282  0.08441036     0.19400
C3157       C  0.79926082  0.90850978  0.07502854    -0.06400
C3158       C  0.77646894  0.89658759  0.05309694    -0.17600
C3159       C  0.75494862  0.91494767  0.03736815     0.10800
C3160       C  0.75982809  0.94552831  0.03653913    -0.06400
C3161       C  0.78178414  0.95764312  0.05916166    -0.17600
C3162       C  0.79960847  0.93961248  0.08100472     0.10800
S3163       S  0.72045780  0.89857990  0.02378006    -0.32600
S3164       S  0.81910190  0.95781069  0.11843895    -0.32600
H3165       H  0.81556585  0.93453012  0.14355494     0.28800
H3166       H  0.70044254  0.92412905  0.52471514     0.28800
H3167       H  0.77412263  0.87293875  0.05010850     0.19400
H3168       H  0.78392455  0.98144162  0.06127407     0.19400
C3169       C  0.80275442  0.90589474  0.41594626    -0.06400
C3170       C  0.80894486  0.93648232  0.41434107    -0.17600
C3171       C  0.79386976  0.95711695  0.43613159     0.10800
C3172       C  0.76791820  0.94860100  0.45423946    -0.06400
C3173       C  0.75887842  0.91927498  0.45122569    -0.17600
C3174       C  0.77731408  0.89729078  0.43610591     0.10800
S3175       S  0.80971744  0.99341455  0.44059054    -0.32600
S3176       S  0.76796701  0.85939601  0.44553749    -0.32600
H3177       H  0.73937680  0.86454250  0.45959878     0.28800
H3178       H  0.80513318  0.50071004  0.47354784     0.28800
H3179       H  0.82639936  0.94490731  0.39714504     0.19400
H3180       H  0.73745494  0.91357766  0.46157681     0.19400
C3181       C  0.56904715  0.95085225  0.11914335    -0.06400
C3182       C  0.56722095  0.93013374  0.09011291    -0.17600
C3183       C  0.58705741  0.90623804  0.08678726     0.10800
C3184       C  0.61082492  0.90297907  0.11260019    -0.06400
C3185       C  0.61338598  0.92519639  0.14050794    -0.17600
C3186       C  0.59298166  0.94875737  0.14402521     0.10800
S3187       S  0.57792716  0.87841643  0.05244729    -0.32600
S3188       S  0.59827919  0.97482427  0.18152156    -0.32600
H3189       H  0.58780493  0.99948968  0.16179566     0.28800
H3190       H  0.56356842  0.89774118  0.02770515     0.28800
H3191       H  0.54856302  0.93133749  0.07125447     0.19400
H3192       H  0.62996763  0.92345565  0.16192399     0.19400
C3193       C  0.54857847  0.57906173  0.13007781    -0.06400
C3194       C  0.56513986  0.58206705  0.16289820    -0.17600
C3195       C  0.58563550  0.60485219  0.16822797     0.10800
C3196       C  0.59070998  0.62552352  0.13954723    -0.06400
C3197       C  0.57105497  0.62432086  0.10866556    -0.17600
C3198       C  0.55001393  0.60196709  0.10408217     0.10800
S3199       S  0.60557482  0.60528723  0.21150797    -0.32600
S3200       S  0.52582666  0.60389110  0.06440687    -0.32600
H3201       H  0.50114647  0.59336813  0.08366114     0.28800
H3202       H  0.58514098  0.58881253  0.23191721     0.28800
H3203       H  0.56325484  0.56539893  0.18403643     0.19400
H3204       H  0.57357919  0.63932200  0.08581026     0.19400
C3205       C  0.88598362  0.60864570  0.11738716    -0.06400
C3206       C  0.88134242  0.58547043  0.14292005    -0.17600
C3207       C  0.90153550  0.56163705  0.14660055     0.10800
C3208       C  0.92678115  0.56008019  0.12369739    -0.06400
C3209       C  0.93041705  0.58179741  0.09679544    -0.17600
C3210       C  0.91149342  0.60630537  0.09417304     0.10800
S3211       S  0.89427132  0.53453029  0.18158937    -0.32600
S3212       S  0.92361555  0.63601737  0.06464312    -0.32600
H3213       H  0.94651056  0.62073530  0.04588910     0.28800
H3214       H  0.90726934  0.51062722  0.16213471     0.28800
H3215       H  0.86313375  0.58651937  0.16221602     0.19400
H3216       H  0.94987122  0.58074375  0.07934619     0.19400
C3217       C  0.94570454  0.93356021  0.12233770    -0.06400
C3218       C  0.92599296  0.93395859  0.15232908    -0.17600
C3219       C  0.90234527  0.91436033  0.15497329     0.10800
C3220       C  0.89862179  0.89147362  0.12790027    -0.06400
C3221       C  0.91938509  0.89075403  0.09820056    -0.17600
C3222       C  0.94263690  0.91112028  0.09527385     0.10800
S3223       S  0.87642820  0.92160463  0.19207795    -0.32600
S3224       S  0.96709644  0.90752755  0.05596043    -0.32600
H3225       H  0.99260924  0.91680270  0.07500388     0.28800
H3226       H  0.88502850  0.95055539  0.20119816     0.28800
H3227       H  0.92811931  0.95112508  0.17324921     0.19400
H3228       H  0.91664853  0.87544884  0.07532229     0.19400
C3229       C  0.59800762  0.61016220  0.36351794    -0.06400
C3230       C  0.57479529  0.61362015  0.38996583    -0.17600
C3231       C  0.55306020  0.59193132  0.39514316     0.10800
C3232       C  0.55399762  0.56591423  0.37344193    -0.06400
C3233       C  0.57519021  0.56341408  0.34534135    -0.17600
C3234       C  0.59720084  0.58436836  0.34056447     0.10800
S3235       S  0.52535291  0.59851279  0.43038682    -0.32600
S3236       S  0.62642040  0.57393998  0.30904727    -0.32600
H3237       H  0.60900140  0.55663106  0.28505186     0.28800
H3238       H  0.50286002  0.58200252  0.41329827     0.28800
H3239       H  0.57434058  0.63212805  0.40900383     0.19400
H3240       H  0.57595636  0.54346655  0.32847442     0.19400
C3241       C  0.57185977  0.93972173  0.37955158    -0.06400
C3242       C  0.56966404  0.91710949  0.40573760    -0.17600
C3243       C  0.58893119  0.89243565  0.40552461     0.10800
C3244       C  0.61238833  0.89038843  0.37913492    -0.06400
C3245       C  0.61518905  0.91419544  0.35413244    -0.17600
C3246       C  0.59556183  0.93852823  0.35421938     0.10800
S3247       S  0.58083330  0.86261470  0.43692801    -0.32600
S3248       S  0.60209332  0.96729980  0.32109307    -0.32600
H3249       H  0.59133013  0.99055943  0.34368471     0.28800
H3250       H  0.55832980  0.87699031  0.45743863     0.28800
H3251       H  0.55141028  0.91788818  0.42516125     0.19400
H3252       H  0.63167660  0.91385034  0.33264098     0.19400
C3253       C  0.90090631  0.88721161  0.36130728    -0.06400
C3254       C  0.92133697  0.88494531  0.39127771    -0.17600
C3255       C  0.94399793  0.90540853  0.39731413     0.10800
C3256       C  0.94680600  0.92942925  0.37335615    -0.06400
C3257       C  0.92749325  0.93149234  0.34296647    -0.17600
C3258       C  0.90443284  0.91161398  0.33710237     0.10800
S3259       S  0.96825646  0.89987361  0.43633857    -0.32600
S3260       S  0.87825972  0.92063643  0.30089327    -0.32600
H3261       H  0.89033145  0.94749865  0.28932131     0.28800
H3262       H  0.99396133  0.90756166  0.41684961     0.28800
H3263       H  0.91870815  0.86841612  0.41229735     0.19400
H3264       H  0.92943753  0.95012142  0.32461172     0.19400
C3265       C  0.88263030  0.59404098  0.37901123    -0.06400
C3266       C  0.89599331  0.58640846  0.41292145    -0.17600
C3267       C  0.91767779  0.56383274  0.41508300     0.10800
C3268       C  0.92743269  0.54876248  0.38233505    -0.06400
C3269       C  0.91172237  0.55397204  0.34958935    -0.17600
C3270       C  0.88925772  0.57555670  0.34751159     0.10800
S3271       S  0.93272395  0.55666066  0.46040966    -0.32600
S3272       S  0.87201817  0.58087638  0.30262799    -0.32600
H3273       H  0.88606277  0.55752236  0.28325001     0.28800
H3274       H  0.92663725  0.52625950  0.45815648     0.28800
H3275       H  0.89106093  0.59902464  0.43776850     0.19400
H3276       H  0.91792696  0.54175014  0.32480261     0.19400
O3277       O  0.53755022  0.97302578  0.90863011    -0.74700
O3278       O  0.96896558  0.52094209  0.90877402    -0.74800
O3279       O  0.97751695  0.96350678  0.90901205    -0.74800
O3280       O  0.53060828  0.53082145  0.91258858    -0.74900
O3281       O  0.52701612  0.53205235  0.85102071    -0.74800
O3282       O  0.98015215  0.96307289  0.84741064    -0.74800
O3283       O  0.96747908  0.52146352  0.84726193    -0.74800
O3284       O  0.53773364  0.97300304  0.84683168    -0.74800
Ni3285     Ni  0.00350965  0.49640904  0.90900924     1.25400
Ni3286     Ni  0.50216254  0.99764195  0.84531703     1.25400
C3287       C  0.54871543  0.96423009  0.87784503     0.87400
C3288       C  0.95665748  0.52957821  0.87892582     0.87400
C3289       C  0.97046594  0.95209182  0.87729656     0.87400
C3290       C  0.53724514  0.54249477  0.88126387     0.87600
O3291       O  0.53274180  0.98183854  0.58662821    -0.74700
O3292       O  0.96717154  0.52932044  0.59388411    -0.74800
O3293       O  0.52656892  0.54043584  0.59345708    -0.74800
O3294       O  0.97385506  0.96983613  0.58362680    -0.74900
O3295       O  0.97462803  0.96910298  0.64535680    -0.74800
O3296       O  0.52492713  0.53776458  0.65500557    -0.74800
O3297       O  0.96539035  0.52845211  0.65550564    -0.74800
O3298       O  0.53415149  0.98038670  0.64830833    -0.74800
Ni3299     Ni  0.00158438  0.50507017  0.59175952     1.25400
Ni3300     Ni  0.00070239  0.50314036  0.65772578     1.25400
C3301       C  0.54468128  0.97245416  0.61643055     0.87400
C3302       C  0.95511595  0.53767383  0.62426610     0.87400
C3303       C  0.53345328  0.55070745  0.62579492     0.87400
C3304       C  0.96584608  0.95832963  0.61453961     0.87600
N3305       N  0.65613377  0.70218112  0.99838697    -0.36900
N3306       N  0.65947966  0.74567836  0.94051242    -0.57500
N3307       N  0.65730098  0.79294741  0.99771501    -0.36900
N3308       N  0.65323953  0.74657385  0.55622268    -0.57500
C3309       C  0.64954760  0.68561699  0.96807451     0.26700
C3310       C  0.64706633  0.68518660  0.52939814     0.26700
C3311       C  0.66580799  0.80867095  0.96785276     0.26700
C3312       C  0.66043711  0.80767523  0.52816854     0.26700
C3313       C  0.66815364  0.72071361  0.92228282     0.35300
C3314       C  0.67105030  0.76854662  0.92190551     0.35300
C3315       C  0.66168341  0.72260646  0.57573109     0.35300
C3316       C  0.66154964  0.77042707  0.57628181     0.35300
C3317       C  0.63553964  0.66001391  0.97915716    -0.22200
C3318       C  0.63380636  0.65902458  0.51878751    -0.22200
C3319       C  0.67664609  0.83565157  0.97972522    -0.22200
C3320       C  0.67338249  0.83363420  0.51737208    -0.22200
C3321       C  0.68591460  0.72755771  0.89253066    -0.23300
C3322       C  0.68881226  0.75779444  0.89333188    -0.23300
C3323       C  0.67637160  0.73099933  0.60769248    -0.23300
C3324       C  0.67732875  0.76135389  0.60726893    -0.23300
C3325       C  0.65852386  0.69221876  0.93145484    -0.18600
C3326       C  0.65364573  0.69365155  0.56626140    -0.18600
C3327       C  0.65562318  0.79996869  0.56574254    -0.18600
C3328       C  0.66520978  0.79879705  0.93034303    -0.18600
H3329       H  0.62825792  0.64171691  0.96211178     0.14300
H3330       H  0.62426517  0.64272667  0.53669563     0.14300
H3331       H  0.68689633  0.85235738  0.96296955     0.14300
H3332       H  0.68148907  0.85080145  0.53545346     0.14300
H3333       H  0.69646390  0.71238671  0.87313519     0.12600
H3334       H  0.70296144  0.77037262  0.87533621     0.12600
H3335       H  0.68612384  0.71673638  0.62840743     0.12600
H3336       H  0.68959135  0.77493521  0.62661891     0.12600
H3337       H  0.66966349  0.72066743  0.99900976     0.25800
H3338       H  0.64680645  0.77264071  0.99689215     0.25800
C3339       C  0.87258679  0.87077012  0.86572980     0.86200
C3340       C  0.87162183  0.84285245  0.88933767    -0.54100
C3341       C  0.84381838  0.83413322  0.89817034     0.09100
C3342       C  0.81904313  0.85372397  0.88144845     0.20000
C3343       C  0.85355599  0.86238977  0.83132422    -0.54800
C3344       C  0.82462053  0.85510198  0.83909615     0.09200
C3345       C  0.85386296  0.89327451  0.88735952    -0.54300
C3346       C  0.82547911  0.88546216  0.89545787     0.09800
H3347       H  0.89109884  0.83106362  0.89922910     0.14300
H3348       H  0.79762568  0.84419669  0.88791419     0.00000
H3349       H  0.86234767  0.86122451  0.80347353     0.14600
H3350       H  0.86393974  0.91348332  0.89716045     0.14400
C3351       C  0.86795484  0.87614701  0.61872582     0.86200
C3352       C  0.84859270  0.89696026  0.59597168    -0.54100
C3353       C  0.82058656  0.88785340  0.58943956     0.09100
C3354       C  0.81513112  0.85628703  0.60348072     0.20000
C3355       C  0.84917706  0.86809323  0.65326881    -0.54800
C3356       C  0.82048634  0.85933318  0.64570209     0.09200
C3357       C  0.86831599  0.84732833  0.59613070    -0.54300
C3358       C  0.84087663  0.83679851  0.58800632     0.09800
H3359       H  0.85698288  0.91755243  0.58528412     0.14300
H3360       H  0.79356328  0.84681718  0.59567112     0.00000
H3361       H  0.85830472  0.86871384  0.68100624     0.14600
H3362       H  0.88824234  0.83634343  0.58605758     0.14400
C3363       C  0.62473226  0.63658355  0.63420694     0.86200
C3364       C  0.64073746  0.61266098  0.61153120    -0.54100
C3365       C  0.66739624  0.62005123  0.59818050     0.09100
C3366       C  0.67661853  0.65149938  0.60879754     0.20000
C3367       C  0.64736469  0.64528630  0.66477731    -0.54800
C3368       C  0.67574120  0.65136536  0.65211617     0.09200
C3369       C  0.62407376  0.66409726  0.60975242    -0.54300
C3370       C  0.65086689  0.67145420  0.59600397     0.09800
H3371       H  0.63136458  0.59097169  0.60615316     0.14300
H3372       H  0.69626073  0.65948919  0.59457115     0.00000
H3373       H  0.64132897  0.64731205  0.69367798     0.14600
H3374       H  0.60418214  0.67656575  0.60284560     0.14400
C3375       C  0.63091224  0.62869905  0.87019365     0.86200
C3376       C  0.62931518  0.65800987  0.89190411    -0.54100
C3377       C  0.65617999  0.66892058  0.90189449     0.09100
C3378       C  0.68272534  0.65038720  0.88704074     0.20000
C3379       C  0.65011557  0.63673701  0.83595318    -0.54800
C3380       C  0.67840626  0.64663086  0.84415177     0.09200
C3381       C  0.65054538  0.60855068  0.89338054    -0.54300
C3382       C  0.67757205  0.61905146  0.90146567     0.09800
H3383       H  0.60884354  0.66875335  0.90063804     0.14300
H3384       H  0.70360252  0.66043832  0.89654688     0.00000
H3385       H  0.64169667  0.63489433  0.80796055     0.14600
H3386       H  0.64397309  0.58649160  0.90158817     0.14400
C3387       C  0.73983973  0.96455543  0.51137279     0.02000
C3388       C  0.75195390  0.97122398  0.97617094     0.01900
C3389       C  0.74724574  0.50006302  0.95832943    -0.18600
C3390       C  0.72970883  0.52135850  0.97722731     0.02000
C3391       C  0.71642384  0.51094179  0.51287974     0.01900
C3392       C  0.72609156  0.48508439  0.53012726    -0.18600
H3393       H  0.72004179  0.48104608  0.55872901     0.04000
H3394       H  0.75613878  0.50482425  0.93121509     0.04000
N3395       N  0.83190758  0.80243808  0.99357050    -0.36900
N3396       N  0.84147710  0.75581121  0.93491838    -0.57500
N3397       N  0.84934102  0.71200058  0.99180010    -0.36900
N3398       N  0.83803971  0.75855819  0.55049982    -0.57500
C3399       C  0.83378795  0.81972800  0.96326609     0.26700
C3400       C  0.83296921  0.82092126  0.52276691     0.26700
C3401       C  0.84262182  0.69520437  0.96141803     0.26700
C3402       C  0.84119360  0.69726162  0.52201609     0.26700
C3403       C  0.84428596  0.78077329  0.91456535     0.35300
C3404       C  0.85122266  0.73274214  0.91330975     0.35300
C3405       C  0.84499152  0.78338279  0.56983772     0.35300
C3406       C  0.85312320  0.73619723  0.56682433     0.35300
C3407       C  0.83419553  0.84901706  0.97460560    -0.22200
C3408       C  0.83616688  0.84976360  0.51123138    -0.22200
C3409       C  0.82869360  0.66980835  0.97327693    -0.22200
C3410       C  0.82685335  0.67165002  0.51140042    -0.22200
C3411       C  0.85533904  0.77373197  0.88011757    -0.23300
C3412       C  0.86046140  0.74420757  0.87971680    -0.23300
C3413       C  0.86451905  0.77671484  0.59813974    -0.23300
C3414       C  0.87084757  0.74731777  0.59457058    -0.23300
C3415       C  0.83888224  0.81038566  0.92612025    -0.18600
C3416       C  0.83684461  0.81245871  0.56011562    -0.18600
C3417       C  0.84866804  0.70588613  0.55896227    -0.18600
C3418       C  0.85016324  0.70202656  0.92374071    -0.18600
H3419       H  0.83872460  0.86818546  0.95853765     0.14300
H3420       H  0.84068837  0.86916788  0.52757251     0.14300
H3421       H  0.81968102  0.65236442  0.95607146     0.14300
H3422       H  0.81702255  0.65547821  0.52934984     0.14300
H3423       H  0.86052381  0.78842548  0.85761972     0.12600
H3424       H  0.87076704  0.73436558  0.85635056     0.12600
H3425       H  0.87509997  0.79158235  0.61753170     0.12600
H3426       H  0.88777031  0.73583338  0.60937303     0.12600
H3427       H  0.83239692  0.77956023  0.99337933     0.25800
H3428       H  0.86178871  0.73127962  0.99182332     0.25800
N3429       N  0.70267745  0.83226576  0.74339656    -0.36900
N3430       N  0.74435853  0.83997139  0.68401688    -0.57500
N3431       N  0.79501013  0.84339918  0.74203832    -0.36900
N3432       N  0.74843475  0.83530255  0.80165975    -0.57500
C3433       C  0.68494591  0.82742696  0.71369996     0.26700
C3434       C  0.68667492  0.82565689  0.77375668     0.26700
C3435       C  0.80299595  0.85987619  0.71259222     0.26700
C3436       C  0.80584702  0.85741186  0.77258829     0.26700
C3437       C  0.71851390  0.84669058  0.66623044     0.35300
C3438       C  0.76621904  0.85289167  0.66454346     0.35300
C3439       C  0.72306745  0.84203518  0.82041880     0.35300
C3440       C  0.77040349  0.84901508  0.82056216     0.35300
C3441       C  0.65826242  0.81656436  0.72556150    -0.22200
C3442       C  0.65888585  0.81657847  0.76312038    -0.22200
C3443       C  0.81606511  0.88559241  0.72485034    -0.22200
C3444       C  0.81819446  0.88394538  0.76262682    -0.22200
C3445       C  0.72400547  0.86395384  0.63580251    -0.23300
C3446       C  0.75373701  0.86903365  0.63619200    -0.23300
C3447       C  0.72886157  0.86043905  0.85020299    -0.23300
C3448       C  0.75835475  0.86613989  0.84873855    -0.23300
C3449       C  0.68991542  0.83819865  0.67782877    -0.18600
C3450       C  0.69437113  0.83297735  0.81035549    -0.18600
C3451       C  0.80052280  0.84996295  0.80979798    -0.18600
C3452       C  0.79657323  0.85408060  0.67495045    -0.18600
H3453       H  0.63931992  0.81110325  0.70956856     0.14300
H3454       H  0.63988212  0.81292362  0.78021800     0.14300
H3455       H  0.82098614  0.90461005  0.70836172     0.14300
H3456       H  0.82521304  0.90150637  0.78104995     0.14300
H3457       H  0.70824584  0.87384264  0.61691893     0.12600
H3458       H  0.76431110  0.88558728  0.62036030     0.12600
H3459       H  0.71326481  0.87069174  0.86924242     0.12600
H3460       H  0.76921386  0.88302125  0.86459365     0.12600
H3461       H  0.72227801  0.84409696  0.74360803     0.25800
H3462       H  0.78383925  0.82333380  0.74123188     0.25800
C3463       C  0.63126181  0.86363676  0.87153611     0.86200
C3464       C  0.61017551  0.84120860  0.85452076    -0.54100
C3465       C  0.62150179  0.81345815  0.84869644     0.09100
C3466       C  0.65470754  0.81137053  0.85800500     0.20000
C3467       C  0.64436046  0.84802779  0.90597741    -0.54800
C3468       C  0.65677908  0.82024856  0.89957289     0.09200
C3469       C  0.65725048  0.86396915  0.84412422    -0.54300
C3470       C  0.66968598  0.83687611  0.83735975     0.09800
H3471       H  0.58725146  0.84697254  0.84841029     0.14300
H3472       H  0.66389564  0.78992902  0.84992415     0.00000
H3473       H  0.64167482  0.85786208  0.93318647     0.14600
H3474       H  0.66575881  0.88332773  0.83067279     0.14400
C3475       C  0.62590857  0.87151747  0.61812799     0.86200
C3476       C  0.65333012  0.87126480  0.64412613    -0.54100
C3477       C  0.66329920  0.84357239  0.65341807     0.09100
C3478       C  0.64425335  0.81859933  0.63682794     0.20000
C3479       C  0.63614013  0.85166415  0.58515318    -0.54800
C3480       C  0.64623042  0.82357359  0.59433494     0.09200
C3481       C  0.60303254  0.85326907  0.63815046    -0.54300
C3482       C  0.61195335  0.82594223  0.64812375     0.09800
H3483       H  0.66477889  0.89077300  0.65374197     0.14300
H3484       H  0.65061030  0.79678422  0.64730951     0.00000
H3485       H  0.63451756  0.85944983  0.55701735     0.14600
H3486       H  0.58107659  0.86186931  0.64498010     0.14400
C3487       C  0.87203706  0.63735549  0.61836998     0.86200
C3488       C  0.84402932  0.63855733  0.64244137    -0.54100
C3489       C  0.83384697  0.66642883  0.65030199     0.09100
C3490       C  0.85248234  0.69110429  0.63214927     0.20000
C3491       C  0.86282532  0.65475630  0.58335227    -0.54800
C3492       C  0.85336756  0.68337301  0.58980254     0.09200
C3493       C  0.89363568  0.65704161  0.63896547    -0.54300
C3494       C  0.88487777  0.68550040  0.64542746     0.09800
H3495       H  0.83295744  0.61926656  0.65298760     0.14300
H3496       H  0.84317991  0.71323290  0.63832616     0.00000
H3497       H  0.86457298  0.64535910  0.55576413     0.14600
H3498       H  0.91490195  0.64832078  0.64821280     0.14400
C3499       C  0.87218384  0.62637928  0.87203697     0.86200
C3500       C  0.89542841  0.64267860  0.85014705    -0.54100
C3501       C  0.88761623  0.67001066  0.83948950     0.09100
C3502       C  0.85596059  0.67947720  0.85241026     0.20000
C3503       C  0.86554922  0.64808870  0.90530566    -0.54800
C3504       C  0.85650803  0.67652599  0.89549707     0.09200
C3505       C  0.84355465  0.62768293  0.84887547    -0.54300
C3506       C  0.83556007  0.65528748  0.83761808     0.09800
H3507       H  0.91715724  0.63325648  0.84379628     0.14300
H3508       H  0.84692260  0.70004411  0.84125335     0.00000
H3509       H  0.86868784  0.64185116  0.93387323     0.14600
H3510       H  0.83076294  0.60835257  0.84148949     0.14400
C3511       C  0.52620986  0.76540206  0.73720884     0.02000
C3512       C  0.52737397  0.75674011  0.77482000     0.01900
C3513       C  0.00245372  0.74508532  0.78718414    -0.18600
C3514       C  0.97781357  0.73711270  0.76557259     0.02000
C3515       C  0.97776176  0.74321768  0.72721415     0.01900
C3516       C  0.00178690  0.75766106  0.71170633    -0.18600
H3517       H  0.00169766  0.76228119  0.68224326     0.04000
H3518       H  0.00296638  0.73955171  0.81634327     0.04000
N3519       N  0.79942265  0.66728560  0.74472673    -0.36900
N3520       N  0.75482870  0.66815893  0.68678727    -0.57500
N3521       N  0.70823278  0.66046801  0.74719332    -0.36900
N3522       N  0.75588681  0.66104758  0.80423206    -0.57500
C3523       C  0.81623381  0.67468946  0.71511439     0.26700
C3524       C  0.81639549  0.67154015  0.77534945     0.26700
C3525       C  0.69895576  0.64596622  0.71603445     0.26700
C3526       C  0.69778741  0.64509636  0.77674161     0.26700
C3527       C  0.77953856  0.66646094  0.66530711     0.35300
C3528       C  0.73180623  0.65981810  0.66503292     0.35300
C3529       C  0.78122064  0.65496319  0.82319249     0.35300
C3530       C  0.73329097  0.65235953  0.82617077     0.35300
C3531       C  0.84366834  0.68337063  0.72719307    -0.22200
C3532       C  0.84320875  0.68293919  0.76475375    -0.22200
C3533       C  0.68512023  0.62017191  0.72612895    -0.22200
C3534       C  0.68460997  0.61957052  0.76406544    -0.22200
C3535       C  0.77247052  0.65747124  0.62995959    -0.23300
C3536       C  0.74289850  0.65206129  0.63016654    -0.23300
C3537       C  0.77484297  0.64240491  0.85676237    -0.23300
C3538       C  0.74499469  0.63981060  0.85793266    -0.23300
C3539       C  0.80885384  0.67094450  0.67739868    -0.18600
C3540       C  0.81017565  0.66117155  0.81138229    -0.18600
C3541       C  0.70308803  0.65100544  0.81504776    -0.18600
C3542       C  0.70247147  0.65473929  0.67837124    -0.18600
H3543       H  0.86277335  0.68828348  0.71102117     0.14300
H3544       H  0.86132316  0.68967465  0.78153510     0.14300
H3545       H  0.67707573  0.60293893  0.70796785     0.14300
H3546       H  0.67738889  0.60132079  0.78048692     0.14300
H3547       H  0.78748768  0.65229453  0.60736171     0.12600
H3548       H  0.73339672  0.63854659  0.60881523     0.12600
H3549       H  0.78997323  0.63456783  0.87783036     0.12600
H3550       H  0.73438012  0.62697416  0.87843185     0.12600
H3551       H  0.77946789  0.65605157  0.74378227     0.25800
H3552       H  0.71937376  0.68054076  0.74825899     0.25800
C3553       C  0.90925247  0.68764985  0.81854265    -0.06400
C3554       C  0.92010032  0.71342704  0.83493591    -0.17600
C3555       C  0.93943630  0.73159301  0.81604851     0.10800
C3556       C  0.95328978  0.72100760  0.78338529    -0.06400
C3557       C  0.94513105  0.69334670  0.76903709    -0.17600
C3558       C  0.92239720  0.67724606  0.78503958     0.10800
S3559       S  0.94424598  0.76830231  0.83446527    -0.32600
S3560       S  0.91279091  0.64311077  0.76182650    -0.32600
H3561       H  0.88419281  0.64067838  0.77628642     0.28800
H3562       H  0.94962528  0.78136958  0.79995028     0.28800
H3563       H  0.91413816  0.71927440  0.86306493     0.19400
H3564       H  0.95644014  0.68418489  0.74501450     0.19400
C3565       C  0.90736088  0.70667939  0.66153729    -0.06400
C3566       C  0.93733226  0.70044091  0.65296808    -0.17600
C3567       C  0.96035880  0.71127320  0.67442771     0.10800
C3568       C  0.95416487  0.73258357  0.70210487    -0.06400
C3569       C  0.92500861  0.74316014  0.70647135    -0.17600
C3570       C  0.90135792  0.73051132  0.68658616     0.10800
S3571       S  0.99649259  0.69446284  0.66722964    -0.32600
S3572       S  0.86477162  0.74614991  0.69333990    -0.32600
H3573       H  0.87105001  0.76213831  0.72602550     0.28800
H3574       H  0.50668611  0.69941339  0.70144971     0.28800
H3575       H  0.94305804  0.68490539  0.63100431     0.19400
H3576       H  0.92079793  0.76076451  0.72640538     0.19400
C3577       C  0.59264325  0.80824191  0.67279773    -0.06400
C3578       C  0.57955668  0.82295034  0.70338581    -0.17600
C3579       C  0.55819689  0.80952123  0.72509888     0.10800
C3580       C  0.55096956  0.77986316  0.71805469    -0.06400
C3581       C  0.56521462  0.76441715  0.68897096    -0.17600
C3582       C  0.58563216  0.77842391  0.66586638     0.10800
S3583       S  0.53923476  0.83222045  0.75907962    -0.32600
S3584       S  0.59990331  0.75898786  0.62575722    -0.32600
H3585       H  0.58879599  0.73101691  0.63452937     0.28800
H3586       H  0.51107227  0.82044214  0.75211414     0.28800
H3587       H  0.58504333  0.84574960  0.70938747     0.19400
H3588       H  0.55906954  0.74176208  0.68328394     0.19400
C3589       C  0.60100397  0.78885512  0.83797388    -0.06400
C3590       C  0.57224120  0.79124886  0.85247266    -0.17600
C3591       C  0.54796996  0.78102566  0.83276068     0.10800
C3592       C  0.55246009  0.76471146  0.79956988    -0.06400
C3593       C  0.58153313  0.75639553  0.78978153    -0.17600
C3594       C  0.60607889  0.76791282  0.80901681     0.10800
S3595       S  0.51233326  0.79346078  0.84942449    -0.32600
S3596       S  0.64262052  0.75411877  0.79736414    -0.32600
H3597       H  0.63413105  0.73498215  0.76835565     0.28800
H3598       H  0.50084422  0.80007928  0.81425089     0.28800
H3599       H  0.56818207  0.80482936  0.87693795     0.19400
H3600       H  0.58489698  0.74162862  0.76631827     0.19400
C3601       C  0.69963667  0.59857141  0.91741284    -0.06400
C3602       C  0.70793575  0.60249927  0.95427928    -0.17600
C3603       C  0.71838165  0.57865482  0.97530127     0.10800
C3604       C  0.72218377  0.55001953  0.95800185    -0.06400
C3605       C  0.71612879  0.54763067  0.91982096    -0.17600
C3606       C  0.70554348  0.57130950  0.89952835     0.10800
S3607       S  0.71929692  0.58387547  0.52409634    -0.32600
S3608       S  0.69714199  0.56429274  0.85140355    -0.32600
H3609       H  0.70607472  0.59214906  0.83970885     0.28800
H3610       H  0.67775153  0.55495148  0.57264498     0.28800
H3611       H  0.70278008  0.62336943  0.96800487     0.19400
H3612       H  0.71747120  0.52647192  0.90562987     0.19400
C3613       C  0.68323986  0.59806964  0.57541215    -0.06400
C3614       C  0.66421400  0.58569823  0.53808204    -0.17600
C3615       C  0.67244642  0.55280249  0.51865023     0.10800
C3616       C  0.70112667  0.53250672  0.53570082    -0.06400
C3617       C  0.72014756  0.54454505  0.57320513    -0.19200
C3618       C  0.71121432  0.57708594  0.59330393     0.10800
S3619       S  0.65189209  0.54176383  0.97817303    -0.32600
S3620       S  0.72610516  0.58318442  0.63866399    -0.32600
H3621       H  0.69886513  0.59334123  0.65238376     0.28800
H3622       H  0.66458764  0.51326482  0.97790977     0.28800
H3623       H  0.64484145  0.59748941  0.52853438     0.19400
H3624       H  0.73849309  0.53161870  0.58396741     0.19400
C3625       C  0.79801047  0.90779914  0.57219751    -0.06400
C3626       C  0.77418695  0.89566801  0.55221144    -0.17600
C3627       C  0.75207474  0.91394961  0.53741213     0.10800
C3628       C  0.75704440  0.94447057  0.53532974    -0.06400
C3629       C  0.77978579  0.95681906  0.55640920    -0.17600
C3630       C  0.79858502  0.93902232  0.57733304     0.10800
S3631       S  0.71704657  0.89772353  0.52592074    -0.32600
S3632       S  0.81961251  0.95775535  0.61290742    -0.32600
H3633       H  0.81553896  0.93542870  0.63921805     0.28800
H3634       H  0.70400011  0.92492751  0.02031591     0.28800
H3635       H  0.77158349  0.87199591  0.55012232     0.19400
H3636       H  0.78197261  0.98063676  0.55789569     0.19400
C3637       C  0.80497156  0.90665602  0.91607866    -0.06400
C3638       C  0.81265204  0.93694888  0.91700999    -0.17600
C3639       C  0.79759727  0.95760142  0.93892839     0.10800
C3640       C  0.77071804  0.94974225  0.95533721    -0.06400
C3641       C  0.76048713  0.92099792  0.95013459    -0.17600
C3642       C  0.77846377  0.89865039  0.93472261     0.10800
S3643       S  0.81427046  0.99340036  0.94482701    -0.32600
S3644       S  0.76722958  0.86101318  0.94256082    -0.32600
H3645       H  0.73905003  0.86698914  0.95732128     0.28800
H3646       H  0.80688731  0.49798783  0.98232439     0.28800
H3647       H  0.83097236  0.94532144  0.90134631     0.19400
H3648       H  0.73843340  0.91600561  0.95901424     0.19400
C3649       C  0.56932013  0.95024135  0.61286377    -0.06400
C3650       C  0.56599198  0.92730822  0.58682607    -0.17600
C3651       C  0.58556281  0.90294054  0.58525063     0.10800
C3652       C  0.61063085  0.90163149  0.60940548    -0.06400
C3653       C  0.61541329  0.92658057  0.63280363    -0.17600
C3654       C  0.59504547  0.95053538  0.63487185     0.10800
S3655       S  0.57557580  0.87231260  0.55514467    -0.32600
S3656       S  0.60201701  0.98153721  0.66547157    -0.32600
H3657       H  0.62866320  0.97070053  0.68065030     0.28800
H3658       H  0.54935223  0.88442438  0.54032480     0.28800
H3659       H  0.54661202  0.92754748  0.56916968     0.19400
H3660       H  0.63385457  0.92684519  0.65169453     0.19400
C3661       C  0.55236337  0.57710741  0.63118397    -0.06400
C3662       C  0.57023870  0.57821327  0.66305656    -0.17600
C3663       C  0.59091728  0.60064089  0.66907066     0.10800
C3664       C  0.59414990  0.62342368  0.64255789    -0.06400
C3665       C  0.57360593  0.62356207  0.61256734    -0.17600
C3666       C  0.55312469  0.60099828  0.60669718     0.10800
S3667       S  0.61376344  0.59808760  0.70996347    -0.32600
S3668       S  0.52920573  0.60369950  0.56685022    -0.32600
H3669       H  0.50412167  0.59381884  0.58589631     0.28800
H3670       H  0.60625769  0.56929933  0.72040759     0.28800
H3671       H  0.56896647  0.56045036  0.68280843     0.19400
H3672       H  0.57511498  0.63966669  0.59082902     0.19400
C3673       C  0.88798727  0.60715127  0.61334821    -0.06400
C3674       C  0.88615297  0.58632806  0.64243010    -0.17600
C3675       C  0.90697832  0.56322927  0.64685317     0.10800
C3676       C  0.93049304  0.55991850  0.62144393    -0.06400
C3677       C  0.93185307  0.57965004  0.59174292    -0.17600
C3678       C  0.91205164  0.60349274  0.58798398     0.10800
S3679       S  0.90282035  0.53956955  0.68629962    -0.32600
S3680       S  0.92125870  0.63072596  0.55346275    -0.32600
H3681       H  0.94436478  0.61515749  0.53551155     0.28800
H3682       H  0.91141120  0.51356853  0.66726775     0.28800
H3683       H  0.86974643  0.58900162  0.66396850     0.19400
H3684       H  0.95014307  0.57762412  0.57250897     0.19400
C3685       C  0.94423517  0.93392877  0.61682174    -0.06400
C3686       C  0.92373644  0.93600793  0.64582259    -0.17600
C3687       C  0.90022007  0.91651641  0.64914189     0.10800
C3688       C  0.89777280  0.89192516  0.62433857    -0.06400
C3689       C  0.91960747  0.88924542  0.59605219    -0.17600
C3690       C  0.94255268  0.90974847  0.59210888     0.10800
S3691       S  0.87228106  0.92647338  0.68293431    -0.32600
S3692       S  0.96846777  0.90405505  0.55466375    -0.32600
H3693       H  0.99284007  0.91612940  0.57348123     0.28800
H3694       H  0.88225118  0.95481599  0.69271653     0.28800
H3695       H  0.92506795  0.95450139  0.66499353     0.19400
H3696       H  0.91799558  0.87235092  0.57484789     0.19400
C3697       C  0.60166215  0.61174339  0.86574303    -0.06400
C3698       C  0.58097291  0.61357405  0.89548601    -0.17600
C3699       C  0.55960406  0.59184780  0.90163884     0.10800
C3700       C  0.55826317  0.56721268  0.87767976    -0.06400
C3701       C  0.57773474  0.56559651  0.84754070    -0.17600
C3702       C  0.59978212  0.58646893  0.84199408     0.10800
S3703       S  0.53535479  0.59659581  0.94098814    -0.32600
S3704       S  0.62766022  0.57685791  0.80808327    -0.32600
H3705       H  0.61264430  0.55391281  0.78975527     0.28800
H3706       H  0.51057665  0.58366382  0.92401145     0.28800
H3707       H  0.58255679  0.63080509  0.91627514     0.19400
H3708       H  0.57700420  0.54636536  0.82947375     0.19400
C3709       C  0.57293964  0.94167909  0.87916841    -0.06400
C3710       C  0.56886316  0.91750908  0.90246109    -0.17600
C3711       C  0.58873282  0.89343005  0.90297612     0.10800
C3712       C  0.61383904  0.89289820  0.87900045    -0.06400
C3713       C  0.61909103  0.91869758  0.85808379    -0.17600
C3714       C  0.59918695  0.94292027  0.85820853     0.10800
S3715       S  0.58018763  0.86290794  0.93311011    -0.32600
S3716       S  0.60887294  0.97497247  0.83170844    -0.32600
H3717       H  0.59318261  0.99564933  0.85373394     0.28800
H3718       H  0.55476488  0.87524066  0.94998747     0.28800
H3719       H  0.54914227  0.91700229  0.91944119     0.19400
H3720       H  0.63819855  0.92035832  0.84048089     0.19400
C3721       C  0.90347120  0.88476907  0.86140583    -0.06400
C3722       C  0.92256511  0.88409609  0.89287507    -0.17600
C3723       C  0.94528326  0.90461796  0.89856378     0.10800
C3724       C  0.94931358  0.92728582  0.87283557    -0.06400
C3725       C  0.93180905  0.92722317  0.84062130    -0.17600
C3726       C  0.90911611  0.90693675  0.83464271     0.10800
S3727       S  0.96782985  0.90102723  0.93954290    -0.32600
S3728       S  0.88623561  0.91317319  0.79435170    -0.32600
H3729       H  0.90742387  0.92804993  0.77316173     0.28800
H3730       H  0.99424425  0.90930661  0.92202571     0.28800
H3731       H  0.91864913  0.86889776  0.91515586     0.19400
H3732       H  0.93453690  0.94471595  0.82071301     0.19400
C3733       C  0.88525515  0.59501708  0.87767645    -0.06400
C3734       C  0.89995253  0.58854973  0.91107006    -0.17600
C3735       C  0.92199418  0.56645320  0.91315475     0.10800
C3736       C  0.92998491  0.54964302  0.88106022    -0.06400
C3737       C  0.91303848  0.55357225  0.84900172    -0.17600
C3738       C  0.89125555  0.57586279  0.84650839     0.10800
S3739       S  0.94067968  0.56316136  0.95708143    -0.32600
S3740       S  0.87403261  0.58073921  0.80152271    -0.32600
H3741       H  0.89255025  0.56167435  0.78068543     0.28800
H3742       H  0.93347819  0.53316285  0.96064933     0.28800
H3743       H  0.89630900  0.60220858  0.93536271     0.19400
H3744       H  0.91795290  0.53991674  0.82492629     0.19400
loop_ 
_geom_bond_atom_site_label_1 
_geom_bond_atom_site_label_2 
_geom_bond_distance 
_geom_bond_site_symmetry_2 
_ccdc_geom_bond_type 
O1           C11   1.278       .  A
O1        Ni2817   1.907       .  S
O2           C12   1.275       .  A
O2           Ni9   1.910   1_545  S
O3           C13   1.289       .  A
O3         Ni945   1.947       .  S
O4           C14   1.290       .  A
O4        Ni1881   1.953   1_545  S
O5           C14   1.272       .  A
O5         Ni946   1.877   1_545  S
O6           C13   1.271       .  A
O6        Ni1882   1.871       .  S
O7           C12   1.290       .  A
O7        Ni2818   1.944   1_545  S
O8           C11   1.288       .  A
O8          Ni10   1.946       .  S
Ni9        O2809   1.911       .  S
Ni9         O939   1.955       .  S
Ni9        O1876   1.957   1_565  S
Ni9       Ni2818   2.381       .  S
Ni10        O941   1.876       .  S
Ni10       O1878   1.876   1_455  S
Ni10       O2815   1.946   1_455  S
Ni10      Ni2817   2.382       .  S
C11         C433   1.491       .  S
C12         C460   1.503       .  S
C13         C448   1.476       .  S
C14         C424   1.484       .  S
O15          C25   1.274       .  A
O15       Ni2831   1.891   1_455  S
O16          C26   1.277       .  A
O16         Ni23   1.894       .  S
O17          C27   1.290       .  A
O17       Ni1895   1.950       .  S
O18          C28   1.291       .  A
O18        Ni959   1.958       .  S
O19          C28   1.276       .  A
O19        Ni960   1.896       .  S
O20          C27   1.277       .  A
O20       Ni1896   1.903   1_455  S
O21          C26   1.287       .  A
O21         Ni24   1.946       .  S
O22          C25   1.290       .  A
O22       Ni2832   1.951   1_455  S
Ni23       O2823   1.896   1_545  S
Ni23       O1889   1.946       .  S
Ni23        O954   1.946   1_545  S
Ni23        Ni24   2.384       .  S
Ni24        O955   1.898   1_545  S
Ni24       O1892   1.900       .  S
Ni24       O2830   1.944   1_545  S
C25         C373   1.489       .  S
C26         C400   1.486       .  S
C27         C385   1.499       .  S
C28         C409   1.498       .  S
N29          H61   1.042       .  S
N29          C33   1.353       .  A
N29         C502   1.353       .  A
N30          C37   1.353       .  A
N30          C38   1.350       .  A
N31          H62   1.039       .  S
N31          C35   1.360       .  A
N31         C504   1.358       .  A
N32          C39   1.353       .  A
N32          C40   1.350       .  A
C33          C41   1.389       .  A
C33          C49   1.417       .  A
C34         N497   1.352   1_554  A
C34          C50   1.409       .  A
C34          C42   1.381       .  A
C35          C43   1.383       .  A
C35          C52   1.424       .  A
C36         N499   1.357   1_554  A
C36          C51   1.417       .  A
C36          C44   1.381       .  A
C37          C49   1.408       .  A
C37          C45   1.381       .  A
C38          C52   1.424       .  A
C38          C46   1.389       .  A
C39          C47   1.380       .  A
C39          C50   1.403       .  A
C40          C48   1.387       .  A
C40          C51   1.415       .  A
C41         C510   1.375       .  A
C41          H53   1.081       .  S
C42         C509   1.376   1_554  A
C42          H54   1.080       .  S
C43         C512   1.374       .  A
C43          H55   1.082       .  S
C44         C511   1.375   1_554  A
C44          H56   1.079       .  S
C45          C46   1.377       .  A
C45          H57   1.082       .  S
C46          H58   1.082       .  S
C47          C48   1.375       .  A
C47          H59   1.082       .  S
C48          H60   1.082       .  S
C49         C101   1.491       .  S
C50          C94   1.490       .  S
C51         C204   1.529       .  S
C52         C192   1.534       .  S
C63          C64   1.528       .  S
C63          C69   1.524       .  S
C63          C67   1.553       .  S
C63         C445   1.537       .  S
C64          H71   1.084       .  S
C64          C65   1.356       .  D
C65         C139   1.494       .  S
C65          C66   1.544       .  S
C66          C70   1.545       .  S
C66          C68   1.552       .  S
C66          H72   1.092       .  S
C67          H73   1.083       .  S
C67          C68   1.381       .  D
C68         C175   1.531       .  S
C69          H74   1.085       .  S
C69          C70   1.363       .  D
C70         C361   1.505       .  S
C75          C76   1.522       .  S
C75          C81   1.537       .  S
C75          C79   1.558       .  S
C75         C412   1.553       .  S
C76          H83   1.086       .  S
C76          C77   1.355       .  D
C77         C349   1.481       .  S
C77          C78   1.537       .  S
C78          C82   1.546       .  S
C78          C80   1.538       .  S
C78          H84   1.104       .  S
C79          H85   1.081       .  S
C79          C80   1.388       .  D
C80         C176   1.529       .  S
C81          H86   1.084       .  S
C81          C82   1.368       .  D
C82         C140   1.499       .  S
C87          C88   1.528       .  S
C87          C93   1.533       .  S
C87          C91   1.557       .  S
C87         C388   1.550       .  S
C88          H95   1.089       .  S
C88          C89   1.346       .  D
C89         C337   1.469       .  S
C89          C90   1.537       .  S
C90          C94   1.544       .  S
C90          C92   1.564       .  S
C90          H96   1.092       .  S
C91          H97   1.077       .  S
C91          C92   1.394       .  D
C92         C266   1.550       .  S
C93          H98   1.086       .  S
C93          C94   1.357       .  D
C99         C100   1.532       .  S
C99         C105   1.523       .  S
C99         C103   1.556       .  S
C99         C421   1.540       .  S
C100        H107   1.085       .  S
C100        C101   1.361       .  D
C101        C102   1.547       .  S
C102        C106   1.538       .  S
C102        C104   1.568       .  S
C102        H108   1.105       .  S
C103        H109   1.081       .  S
C103        C104   1.388       .  D
C104        C265   1.546       .  S
C105        H110   1.089       .  S
C105        C106   1.346       .  D
C106        C325   1.476       .  S
C111        C352   1.468       .  S
C111        C580   1.410   1_554  A
C111       C1052   1.388       .  A
C112        C364   1.478       .  S
C112        C579   1.410       .  A
C112       C1049   1.395       .  A
C113        C114   1.409   1_565  A
C113       C1048   1.400       .  A
C113        H118   1.083   1_565  S
C114        C328   1.506       .  S
C114        C583   1.415       .  A
C115        C340   1.443       .  S
C115        C116   1.397   1_545  A
C115        C582   1.412   1_554  A
C116       C1047   1.394       .  A
C116        H117   1.085       .  S
N119        H151   1.036       .  S
N119        C123   1.354       .  A
N119        C592   1.362       .  A
N120        C127   1.359       .  A
N120        C128   1.364       .  A
N121        H152   1.044       .  S
N121        C125   1.364       .  A
N121        C594   1.364       .  A
N122        C129   1.357       .  A
N122        C130   1.353       .  A
C123        C131   1.386       .  A
C123        C139   1.419       .  A
C124        N587   1.360   1_554  A
C124        C140   1.414       .  A
C124        C132   1.382       .  A
C125        C133   1.388       .  A
C125        C142   1.439       .  A
C126        N589   1.362   1_554  A
C126        C141   1.432       .  A
C126        C134   1.386       .  A
C127        C139   1.415       .  A
C127        C135   1.374       .  A
C128        C142   1.443       .  A
C128        C136   1.391       .  A
C129        C137   1.380       .  A
C129        C140   1.409       .  A
C130        C138   1.376       .  A
C130        C141   1.415       .  A
C131        C600   1.357       .  A
C131        H143   1.072       .  S
C132        C599   1.352   1_554  A
C132        H144   1.074       .  S
C133        C602   1.386       .  A
C133        H145   1.082       .  S
C134        C601   1.385   1_554  A
C134        H146   1.082       .  S
C135        C136   1.353       .  A
C135        H147   1.083       .  S
C136        H148   1.056       .  S
C137        C138   1.361       .  A
C137        H149   1.080       .  S
C138        H150   1.065       .  S
C141        C216   1.532       .  S
C142        C228   1.554       .  S
N153        H185   1.040       .  S
N153        C158   1.352       .  A
N153        C157   1.355       .  A
N154        C161   1.360       .  A
N154        C162   1.353       .  A
N155        H186   1.045       .  S
N155        C160   1.359       .  A
N155        C159   1.355       .  A
N156        C163   1.358       .  A
N156        C164   1.354       .  A
C157        C165   1.379       .  A
C157        C173   1.409       .  A
C158        C174   1.406       .  A
C158        C166   1.378       .  A
C159        C167   1.378       .  A
C159        C176   1.406       .  A
C160        C175   1.408       .  A
C160        C168   1.381       .  A
C161        C173   1.418       .  A
C161        C169   1.382       .  A
C162        C176   1.422       .  A
C162        C170   1.383       .  A
C163        C171   1.381       .  A
C163        C174   1.409       .  A
C164        C172   1.381       .  A
C164        C175   1.412       .  A
C165        C166   1.356       .  A
C165        H177   1.066       .  S
C166        H178   1.072       .  S
C167        C168   1.367       .  A
C167        H179   1.079       .  S
C168        H180   1.079       .  S
C169        C170   1.369       .  A
C169        H181   1.081       .  S
C170        H182   1.068       .  S
C171        C172   1.361       .  A
C171        H183   1.081       .  S
C172        H184   1.073       .  S
C173        C201   1.503       .  S
C174        C194   1.489       .  S
C187        C188   1.521       .  S
C187        C193   1.535       .  S
C187        C191   1.554       .  S
C187        C436   1.552       .  S
C188        H195   1.087       .  S
C188        C189   1.363       .  D
C189        C313   1.502       .  S
C189        C190   1.538       .  S
C190        C194   1.544       .  S
C190        C192   1.552       .  S
C190        H196   1.085       .  S
C191        H197   1.080       .  S
C191        C192   1.390       .  D
C193        H198   1.081       .  S
C193        C194   1.361       .  D
C199        C200   1.547       .  S
C199        C205   1.521       .  S
C199        C203   1.554       .  S
C199        C376   1.551       .  S
C200        H207   1.083       .  S
C200        C201   1.366       .  D
C201        C202   1.542       .  S
C202        C206   1.544       .  S
C202        C204   1.553       .  S
C202        H208   1.096       .  S
C203        H209   1.080       .  S
C203        C204   1.390       .  D
C205        H210   1.088       .  S
C205        C206   1.351       .  D
C206        C301   1.496       .  S
C211        C212   1.536       .  S
C211        C217   1.518       .  S
C211        C215   1.547       .  S
C211        C397   1.542       .  S
C212        H219   1.084       .  S
C212        C213   1.367       .  D
C213        C263   1.510       .  S
C213        C214   1.562       .  S
C214        C218   1.563       .  S
C214        C216   1.568       .  S
C214        H220   1.103       .  S
C215        H221   1.081       .  S
C215        C216   1.373       .  D
C217        H222   1.087       .  S
C217        C218   1.360       .  D
C218        C289   1.522       .  S
C223        C224   1.517       .  S
C223        C229   1.545       .  S
C223        C227   1.567       .  S
C223        C457   1.548       .  S
C224        H231   1.089       .  S
C224        C225   1.341       .  D
C225        C277   1.485       .  S
C225        C226   1.562       .  S
C226        C230   1.537       .  S
C226        C228   1.562       .  S
C226        H232   1.092       .  S
C227        H233   1.080       .  S
C227        C228   1.393       .  D
C229        H234   1.084       .  S
C229        C230   1.366       .  D
C230        C264   1.521       .  S
C235        C304   1.487       .  S
C235        C236   1.420       .  A
C235       C2112   1.401   1_455  A
C236        C316   1.488       .  S
C236       C2109   1.405       .  A
C237        C238   1.404       .  A
C237       C2108   1.405       .  A
C237        H242   1.084       .  S
C238        C280   1.481       .  S
C238        C239   1.412       .  A
C239        C292   1.486       .  S
C239        C240   1.399       .  A
C240       C2107   1.403       .  A
C240        H241   1.085       .  S
N243        H275   1.041       .  S
N243        C248   1.362       .  A
N243        C247   1.359       .  A
N244        C251   1.362       .  A
N244        C252   1.361       .  A
N245        H276   1.044       .  S
N245        C250   1.367       .  A
N245        C249   1.366       .  A
N246        C253   1.361       .  A
N246        C254   1.355       .  A
C247        C255   1.374       .  A
C247        C263   1.413       .  A
C248        C264   1.422       .  A
C248        C256   1.378       .  A
C249        C257   1.385       .  A
C249        C266   1.431       .  A
C250        C265   1.426       .  A
C250        C258   1.379       .  A
C251        C263   1.416       .  A
C251        C259   1.374       .  A
C252        C266   1.436       .  A
C252        C260   1.394       .  A
C253        C261   1.377       .  A
C253        C264   1.413       .  A
C254        C262   1.384       .  A
C254        C265   1.421       .  A
C255        C256   1.355       .  A
C255        H267   1.068       .  S
C256        H268   1.061       .  S
C257        C258   1.368       .  A
C257        H269   1.082       .  S
C258        H270   1.075       .  S
C259        C260   1.364       .  A
C259        H271   1.083       .  S
C260        H272   1.071       .  S
C261        C262   1.360       .  A
C261        H273   1.080       .  S
C262        H274   1.067       .  S
C277        C278   1.397       .  A
C277        C282   1.422       .  A
C278        C279   1.391       .  A
C278        H287   1.079       .  S
C279        C280   1.409       .  A
C279        S283   1.798       .  S
C280        C281   1.401       .  A
C281        C282   1.396       .  A
C281        H288   1.082       .  S
C282        S284   1.806       .  S
S283        H286   1.407       .  S
S284        H285   1.401       .  S
C289        C290   1.414       .  A
C289        C294   1.424       .  A
C290        C291   1.388       .  A
C290        H299   1.083       .  S
C291        C292   1.405       .  A
C291        S295   1.807       .  S
C292        C293   1.406       .  A
C293        C294   1.414       .  A
C293        H300   1.083       .  S
C294        S296   1.805       .  S
S295       H2170   1.407       .  S
S296        H297   1.407       .  S
H298       S2167   1.407   1_455  S
C301        C302   1.407       .  A
C301        C306   1.411       .  A
C302        C303   1.394       .  A
C302        H311   1.084       .  S
C303        C304   1.408       .  A
C303        S307   1.801       .  S
C304        C305   1.408       .  A
C305        C306   1.408       .  A
C305        H312   1.083       .  S
C306        S308   1.798       .  S
S307        H310   1.405       .  S
S308        H309   1.408       .  S
C313        C314   1.402       .  A
C313        C318   1.418       .  A
C314        C315   1.386       .  A
C314        H323   1.085       .  S
C315        C316   1.415       .  A
C315        S319   1.798       .  S
C316        C317   1.406       .  A
C317        C318   1.409       .  A
C317        H324   1.083       .  S
C318        S320   1.804       .  S
S319        H322   1.404   1_455  S
S320        H321   1.407       .  S
C325        C326   1.394       .  A
C325        C330   1.412       .  A
C326        C327   1.403       .  A
C326        H335   1.084       .  S
C327        C328   1.435       .  A
C327        S799   1.826       .  S
C328        C329   1.405       .  A
C329        C330   1.388       .  A
C329        H336   1.083       .  S
C330        S332   1.805       .  S
S331        C795   1.822   1_554  S
S331        H334   2.895       .  S
S332        H333   1.400       .  S
C337        C338   1.691       .  A
C337        C342   1.705       .  A
C338        C339   1.679       .  A
C338        H347   1.077       .  S
C339        C340   1.700       .  A
C339        S811   1.800   1_554  S
C340        C341   1.692       .  A
C341        C342   1.683       .  A
C341        H348   1.082       .  S
C342        S344   1.788       .  S
S343        C807   1.797       .  S
S343        H346   1.405       .  S
S344        H345   1.395       .  S
C349        C350   1.406       .  A
C349        C354   1.420       .  A
C350        C351   1.394       .  A
C350        H359   1.081       .  S
C351        C352   1.405       .  A
C351        S355   1.797       .  S
C352        C353   1.396       .  A
C353        C354   1.387       .  A
C353        H360   1.085       .  S
C354        S356   1.807       .  S
S355        H826   1.406       .  S
S356        H357   1.408       .  S
H358        S823   1.405       .  S
C361        C362   1.417       .  A
C361        C366   1.421       .  A
C362        C363   1.390       .  A
C362        H371   1.080       .  S
C363        C364   1.406       .  A
C363        S367   1.807       .  S
C364        C365   1.395       .  A
C365        C366   1.395       .  A
C365        H372   1.074       .  S
C366        S368   1.804       .  S
S367       H1306   1.406       .  S
S368        H369   1.406       .  S
H370       S1303   1.407       .  S
C373        C374   1.403       .  A
C373        C378   1.404       .  A
C374        C375   1.402       .  A
C374        H383   1.083       .  S
C375        C376   1.425       .  A
C375        S379   1.808       .  S
C376        C377   1.424       .  A
C377        C378   1.410       .  A
C377        H384   1.075       .  S
C378        S380   1.807       .  S
S379        H382   1.407       .  S
S380        H381   1.407       .  S
C385        C386   1.408       .  A
C385        C390   1.409       .  A
C386        C387   1.409       .  A
C386        H395   1.082       .  S
C387        C388   1.421       .  A
C387        S391   1.800       .  S
C388        C389   1.422       .  A
C389        C390   1.402       .  A
C389        H396   1.081       .  S
C390        S392   1.802       .  S
S391        H394   1.406       .  S
S392        H393   1.405       .  S
C397        C398   1.419       .  A
C397        C402   1.428       .  A
C398        C399   1.408       .  A
C398        H407   1.079       .  S
C399        C400   1.409       .  A
C399        S403   1.802       .  S
C400        C401   1.399       .  A
C401        C402   1.395       .  A
C401        H408   1.082       .  S
C402        S404   1.812       .  S
S403        H406   1.406       .  S
S404        H405   1.408       .  S
C409        C410   1.402       .  A
C409        C414   1.409       .  A
C410        C411   1.403       .  A
C410        H419   1.082       .  S
C411        C412   1.429       .  A
C411        S415   1.805       .  S
C412        C413   1.422       .  A
C413        C414   1.410       .  A
C413        H420   1.080       .  S
C414        S416   1.801       .  S
S415        H418   1.406       .  S
S416        H417   1.406       .  S
C421        C422   1.425       .  A
C421        C426   1.424       .  A
C422        C423   1.406       .  A
C422        H431   1.079       .  S
C423        C424   1.405       .  A
C423        S427   1.802       .  S
C424        C425   1.400       .  A
C425        C426   1.394       .  A
C425        H432   1.083       .  S
C426        S428   1.799       .  S
S427        H430   1.407       .  S
S428        H429   1.407       .  S
C433        C434   1.402       .  A
C433        C438   1.408       .  A
C434        C435   1.403       .  A
C434        H443   1.082       .  S
C435        C436   1.425       .  A
C435        S439   1.811       .  S
C436        C437   1.421       .  A
C437        C438   1.408       .  A
C437        H444   1.076       .  S
C438        S440   1.804       .  S
S439        H442   1.407       .  S
S440        H441   1.407       .  S
C445        C446   1.425       .  A
C445        C450   1.423       .  A
C446        C447   1.402       .  A
C446        H455   1.078       .  S
C447        C448   1.402       .  A
C447        S451   1.804       .  S
C448        C449   1.400       .  A
C449        C450   1.392       .  A
C449        H456   1.083       .  S
C450        S452   1.804       .  S
S451        H454   1.407       .  S
S452        H453   1.407       .  S
C457        C458   1.409       .  A
C457        C462   1.434       .  A
C458        C459   1.407       .  A
C458        H467   1.079       .  S
C459        C460   1.423       .  A
C459        S463   1.801       .  S
C460        C461   1.398       .  A
C461        C462   1.404       .  A
C461        H468   1.082       .  S
C462        S464   1.812       .  S
S463        H466   1.408       .  S
S464        H465   1.407       .  S
O469        C479   1.276       .  A
O469      Ni3285   1.901       .  S
O470        C480   1.274       .  A
O470       Ni477   1.905   1_545  S
O471        C481   1.290       .  A
O471      Ni1413   1.951       .  S
O472        C482   1.290       .  A
O472      Ni2349   1.954   1_545  S
O473        C482   1.272       .  A
O473      Ni1414   1.875   1_545  S
O474        C481   1.273       .  A
O474      Ni2350   1.879       .  S
O475        C480   1.290       .  A
O475      Ni3286   1.944   1_545  S
O476        C479   1.288       .  A
O476       Ni478   1.944       .  S
Ni477      O3277   1.907       .  S
Ni477      O1407   1.957       .  S
Ni477      O2344   1.957   1_565  S
Ni477     Ni3286   2.382       .  S
Ni478      O1409   1.878       .  S
Ni478      O2346   1.877   1_455  S
Ni478      O3283   1.946   1_455  S
Ni478     Ni3285   2.383       .  S
C479        C901   1.485       .  S
C480        C928   1.500       .  S
C481        C916   1.492       .  S
C482        C892   1.483       .  S
O483        C493   1.274       .  A
O483      Ni3299   1.892       .  S
O484        C494   1.275       .  A
O484       Ni491   1.892       .  S
O485        C495   1.293       .  A
O485      Ni2363   1.966   1_455  S
O486        C496   1.289       .  A
O486      Ni1427   1.950       .  S
O487        C496   1.274       .  A
O487      Ni1428   1.885       .  S
O488        C495   1.275       .  A
O488      Ni2364   1.895   1_455  S
O489        C494   1.288       .  A
O489       Ni492   1.950       .  S
O490        C493   1.289       .  A
O490      Ni3300   1.950       .  S
Ni491      O3291   1.905   1_545  S
Ni491      O2357   1.960       .  S
Ni491      O1422   1.951   1_545  S
Ni491      Ni492   2.382       .  S
Ni492      O1423   1.896   1_545  S
Ni492      O2360   1.899       .  S
Ni492      O3298   1.955   1_545  S
C493        C841   1.485       .  S
C494        C868   1.485       .  S
C495        C853   1.503       .  S
C496        C877   1.483       .  S
N497        H529   1.042       .  S
N497        C501   1.353       .  A
N498        C505   1.355       .  A
N498        C506   1.350       .  A
N499        H530   1.041       .  S
N499        C503   1.356       .  A
N500        C507   1.353       .  A
N500        C508   1.349       .  A
C501        C509   1.391       .  A
C501        C517   1.419       .  A
C502        C518   1.411       .  A
C502        C510   1.383       .  A
C503        C511   1.384       .  A
C503        C520   1.418       .  A
C504        C519   1.425       .  A
C504        C512   1.380       .  A
C505        C517   1.411       .  A
C505        C513   1.382       .  A
C506        C520   1.424       .  A
C506        C514   1.389       .  A
C507        C515   1.382       .  A
C507        C518   1.407       .  A
C508        C516   1.389       .  A
C508        C519   1.418       .  A
C509        H521   1.080       .  S
C510        H522   1.080       .  S
C511        H523   1.082       .  S
C512        H524   1.075       .  S
C513        C514   1.378       .  A
C513        H525   1.082       .  S
C514        H526   1.082       .  S
C515        C516   1.380       .  A
C515        H527   1.082       .  S
C516        H528   1.082       .  S
C517        C569   1.495       .  S
C518        C562   1.493       .  S
C519        C672   1.532       .  S
C520        C660   1.528       .  S
C531        C532   1.531       .  S
C531        C537   1.524       .  S
C531        C535   1.555       .  S
C531        C913   1.544       .  S
C532        H539   1.086       .  S
C532        C533   1.360       .  D
C533        C607   1.499       .  S
C533        C534   1.546       .  S
C534        C538   1.547       .  S
C534        C536   1.548       .  S
C534        H540   1.091       .  S
C535        H541   1.079       .  S
C535        C536   1.382       .  D
C536        C643   1.534       .  S
C537        H542   1.083       .  S
C537        C538   1.362       .  D
C538        C829   1.507       .  S
C543        C544   1.524       .  S
C543        C549   1.535       .  S
C543        C547   1.557       .  S
C543        C880   1.547       .  S
C544        H551   1.084       .  S
C544        C545   1.355       .  D
C545        C817   1.493       .  S
C545        C546   1.545       .  S
C546        C550   1.550       .  S
C546        C548   1.550       .  S
C546        H552   1.102       .  S
C547        H553   1.081       .  S
C547        C548   1.388       .  D
C548        C644   1.541       .  S
C549        H554   1.083       .  S
C549        C550   1.363       .  D
C550        C608   1.501       .  S
C555        C556   1.523       .  S
C555        C561   1.538       .  S
C555        C559   1.559       .  S
C555        C856   1.553       .  S
C556        H563   1.090       .  S
C556        C557   1.343       .  D
C557        C805   1.469       .  S
C557        C558   1.539       .  S
C558        C562   1.542       .  S
C558        C560   1.564       .  S
C558        H564   1.093       .  S
C559        H565   1.080       .  S
C559        C560   1.394       .  D
C560        C734   1.547       .  S
C561        H566   1.085       .  S
C561        C562   1.361       .  D
C567        C568   1.535       .  S
C567        C573   1.522       .  S
C567        C571   1.556       .  S
C567        C889   1.543       .  S
C568        H575   1.084       .  S
C568        C569   1.363       .  D
C569        C570   1.546       .  S
C570        C574   1.535       .  S
C570        C572   1.563       .  S
C570        H576   1.105       .  S
C571        H577   1.081       .  S
C571        C572   1.388       .  D
C572        C733   1.542       .  S
C573        H578   1.089       .  S
C573        C574   1.347       .  D
C574        C793   1.470       .  S
C579        C820   1.471       .  S
C579       C1520   1.389       .  A
C580        C832   1.478       .  S
C580       C1517   1.397       .  A
C581       C1516   1.395       .  A
C581        C582   1.404   1_565  A
C581        H586   1.082   1_565  S
C582        C796   1.504       .  S
C583        C808   1.446       .  S
C583        C584   1.396   1_545  A
C584       C1515   1.392       .  A
C584        H585   1.085       .  S
N587        H619   1.036       .  S
N587        C591   1.354       .  A
N588        C595   1.361       .  A
N588        C596   1.364       .  A
N589        H620   1.044       .  S
N589        C593   1.362       .  A
N590        C597   1.355       .  A
N590        C598   1.351       .  A
C591        C599   1.383       .  A
C591        C607   1.415       .  A
C592        C608   1.417       .  A
C592        C600   1.382       .  A
C593        C601   1.389       .  A
C593        C610   1.436       .  A
C594        C609   1.435       .  A
C594        C602   1.386       .  A
C595        C607   1.416       .  A
C595        C603   1.372       .  A
C596        C610   1.444       .  A
C596        C604   1.390       .  A
C597        C605   1.382       .  A
C597        C608   1.409       .  A
C598        C606   1.377       .  A
C598        C609   1.415       .  A
C599        H611   1.072       .  S
C600        H612   1.075       .  S
C601        H613   1.082       .  S
C602        H614   1.082       .  S
C603        C604   1.354       .  A
C603        H615   1.082       .  S
C604        H616   1.056       .  S
C605        C606   1.365       .  A
C605        H617   1.081       .  S
C606        H618   1.064       .  S
C609        C684   1.534       .  S
C610        C696   1.549       .  S
N621        H653   1.038       .  S
N621        C626   1.353       .  A
N621        C625   1.353       .  A
N622        C629   1.362       .  A
N622        C630   1.357       .  A
N623        H654   1.044       .  S
N623        C628   1.361       .  A
N623        C627   1.358       .  A
N624        C631   1.359       .  A
N624        C632   1.355       .  A
C625        C633   1.378       .  A
C625        C641   1.410       .  A
C626        C642   1.404       .  A
C626        C634   1.379       .  A
C627        C635   1.378       .  A
C627        C644   1.415       .  A
C628        C643   1.412       .  A
C628        C636   1.380       .  A
C629        C641   1.418       .  A
C629        C637   1.380       .  A
C630        C644   1.423       .  A
C630        C638   1.379       .  A
C631        C639   1.381       .  A
C631        C642   1.410       .  A
C632        C640   1.380       .  A
C632        C643   1.416       .  A
C633        C634   1.352       .  A
C633        H645   1.057       .  S
C634        H646   1.076       .  S
C635        C636   1.366       .  A
C635        H647   1.075       .  S
C636        H648   1.081       .  S
C637        C638   1.362       .  A
C637        H649   1.081       .  S
C638        H650   1.067       .  S
C639        C640   1.361       .  A
C639        H651   1.081       .  S
C640        H652   1.072       .  S
C641        C669   1.502       .  S
C642        C662   1.487       .  S
C655        C656   1.520       .  S
C655        C661   1.532       .  S
C655        C659   1.553       .  S
C655        C904   1.549       .  S
C656        H663   1.087       .  S
C656        C657   1.362       .  D
C657        C781   1.504       .  S
C657        C658   1.540       .  S
C658        C662   1.543       .  S
C658        C660   1.549       .  S
C658        H664   1.085       .  S
C659        H665   1.080       .  S
C659        C660   1.391       .  D
C661        H666   1.081       .  S
C661        C662   1.359       .  D
C667        C668   1.547       .  S
C667        C673   1.514       .  S
C667        C671   1.546       .  S
C667        C844   1.546       .  S
C668        H675   1.083       .  S
C668        C669   1.366       .  D
C669        C670   1.540       .  S
C670        C674   1.549       .  S
C670        C672   1.558       .  S
C670        H676   1.096       .  S
C671        H677   1.077       .  S
C671        C672   1.390       .  D
C673        H678   1.088       .  S
C673        C674   1.349       .  D
C674        C769   1.496       .  S
C679        C680   1.535       .  S
C679        C685   1.518       .  S
C679        C683   1.547       .  S
C679        C865   1.545       .  S
C680        H687   1.083       .  S
C680        C681   1.368       .  D
C681        C731   1.508       .  S
C681        C682   1.563       .  S
C682        C686   1.556       .  S
C682        C684   1.570       .  S
C682        H688   1.103       .  S
C683        H689   1.082       .  S
C683        C684   1.373       .  D
C685        H690   1.088       .  S
C685        C686   1.361       .  D
C686        C757   1.514       .  S
C691        C692   1.518       .  S
C691        C697   1.540       .  S
C691        C695   1.567       .  S
C691        C925   1.544       .  S
C692        H699   1.089       .  S
C692        C693   1.343       .  D
C693        C745   1.482       .  S
C693        C694   1.557       .  S
C694        C698   1.531       .  S
C694        C696   1.558       .  S
C694        H700   1.093       .  S
C695        H701   1.080       .  S
C695        C696   1.394       .  D
C697        H702   1.085       .  S
C697        C698   1.363       .  D
C698        C732   1.510       .  S
C703        C772   1.471       .  S
C703        C704   1.414       .  A
C703       C2580   1.400       .  A
C704        C784   1.492       .  S
C704       C2577   1.402       .  A
C705       C2576   1.405       .  A
C705        C706   1.403       .  A
C705        H710   1.084       .  S
C706        C748   1.487       .  S
C706        C707   1.415       .  A
C707        C760   1.477       .  S
C707        C708   1.398       .  A
C708       C2575   1.397       .  A
C708        H709   1.085       .  S
N711        H743   1.041       .  S
N711        C716   1.360       .  A
N711        C715   1.359       .  A
N712        C719   1.361       .  A
N712        C720   1.359       .  A
N713        H744   1.044       .  S
N713        C718   1.365       .  A
N713        C717   1.364       .  A
N714        C721   1.357       .  A
N714        C722   1.354       .  A
C715        C723   1.374       .  A
C715        C731   1.414       .  A
C716        C732   1.420       .  A
C716        C724   1.379       .  A
C717        C725   1.384       .  A
C717        C734   1.427       .  A
C718        C733   1.424       .  A
C718        C726   1.379       .  A
C719        C731   1.413       .  A
C719        C727   1.374       .  A
C720        C734   1.432       .  A
C720        C728   1.392       .  A
C721        C729   1.378       .  A
C721        C732   1.409       .  A
C722        C730   1.387       .  A
C722        C733   1.420       .  A
C723        C724   1.358       .  A
C723        H735   1.067       .  S
C724        H736   1.065       .  S
C725        C726   1.369       .  A
C725        H737   1.081       .  S
C726        H738   1.075       .  S
C727        C728   1.361       .  A
C727        H739   1.082       .  S
C728        H740   1.071       .  S
C729        C730   1.359       .  A
C729        H741   1.081       .  S
C730        H742   1.067       .  S
C745        C746   1.398       .  A
C745        C750   1.418       .  A
C746        C747   1.393       .  A
C746        H755   1.081       .  S
C747        C748   1.412       .  A
C747        S751   1.798       .  S
C748        C749   1.402       .  A
C749        C750   1.396       .  A
C749        H756   1.082       .  S
C750        S752   1.807       .  S
S751        H754   1.407       .  S
S752        H753   1.400       .  S
C757        C758   1.411       .  A
C757        C762   1.424       .  A
C758        C759   1.384       .  A
C758        H767   1.083       .  S
C759        C760   1.406       .  A
C759        S763   1.808       .  S
C760        C761   1.404       .  A
C761        C762   1.410       .  A
C761        H768   1.083       .  S
C762        S764   1.805       .  S
S763       H2638   1.406       .  S
S764        H765   1.408       .  S
H766       S2635   1.406   1_455  S
C769        C770   1.412       .  A
C769        C774   1.410       .  A
C770        C771   1.389       .  A
C770        H779   1.084       .  S
C771        C772   1.404       .  A
C771        S775   1.803       .  S
C772        C773   1.403       .  A
C773        C774   1.401       .  A
C773        H780   1.084       .  S
C774        S776   1.793       .  S
S775        H778   1.406       .  S
S776        H777   1.408       .  S
C781        C782   1.404       .  A
C781        C786   1.417       .  A
C782        C783   1.388       .  A
C782        H791   1.085       .  S
C783        C784   1.413       .  A
C783        S787   1.801       .  S
C784        C785   1.408       .  A
C785        C786   1.410       .  A
C785        H792   1.082       .  S
C786        S788   1.804       .  S
S787        H790   1.403       .  S
S788        H789   1.407       .  S
C793        C794   1.392       .  A
C793        C798   1.409       .  A
C794        C795   1.401       .  A
C794        H803   1.085       .  S
C795        C796   1.435       .  A
C796        C797   1.405       .  A
C797        C798   1.382       .  A
C797        H804   1.083       .  S
C798        S800   1.802       .  S
S799        H802   2.897       .  S
S800        H801   1.395       .  S
C805        C806   1.693       .  A
C805        C810   1.704       .  A
C806        C807   1.680       .  A
C806        H815   1.078       .  S
C807        C808   1.698       .  A
C808        C809   1.691       .  A
C809        C810   1.682       .  A
C809        H816   1.082       .  S
C810        S812   1.789       .  S
S811        H814   1.404       .  S
S812        H813   1.396       .  S
C817        C818   1.408       .  A
C817        C822   1.425       .  A
C818        C819   1.396       .  A
C818        H827   1.081       .  S
C819        C820   1.403       .  A
C819        S823   1.796       .  S
C820        C821   1.395       .  A
C821        C822   1.390       .  A
C821        H828   1.085       .  S
C822        S824   1.805       .  S
S824        H825   1.407       .  S
C829        C830   1.419       .  A
C829        C834   1.420       .  A
C830        C831   1.390       .  A
C830        H839   1.078       .  S
C831        C832   1.403       .  A
C831        S835   1.805       .  S
C832        C833   1.395       .  A
C833        C834   1.395       .  A
C833        H840   1.074       .  S
C834        S836   1.803       .  S
S835       H1774   1.407       .  S
S836        H837   1.406       .  S
H838       S1771   1.407       .  S
C841        C842   1.401       .  A
C841        C846   1.404       .  A
C842        C843   1.399       .  A
C842        H851   1.082       .  S
C843        C844   1.426       .  A
C843        S847   1.811       .  S
C844        C845   1.422       .  A
C845        C846   1.410       .  A
C845        H852   1.075       .  S
C846        S848   1.807       .  S
S847        H850   1.407       .  S
S848        H849   1.407       .  S
C853        C854   1.407       .  A
C853        C858   1.409       .  A
C854        C855   1.407       .  A
C854        H863   1.082       .  S
C855        C856   1.423       .  A
C855        S859   1.803       .  S
C856        C857   1.426       .  A
C857        C858   1.409       .  A
C857        H864   1.080       .  S
C858        S860   1.801       .  S
S859        H862   1.406       .  S
S860        H861   1.405       .  S
C865        C866   1.420       .  A
C865        C870   1.429       .  A
C866        C867   1.410       .  A
C866        H875   1.078       .  S
C867        C868   1.408       .  A
C867        S871   1.802       .  S
C868        C869   1.399       .  A
C869        C870   1.396       .  A
C869        H876   1.082       .  S
C870        S872   1.816       .  S
S871        H874   1.407       .  S
S872        H873   1.407       .  S
C877        C878   1.398       .  A
C877        C882   1.406       .  A
C878        C879   1.395       .  A
C878        H887   1.083       .  S
C879        C880   1.427       .  A
C879        S883   1.801       .  S
C880        C881   1.422       .  A
C881        C882   1.407       .  A
C881        H888   1.077       .  S
C882        S884   1.802       .  S
S883        H886   1.408       .  S
S884        H885   1.406       .  S
C889        C890   1.425       .  A
C889        C894   1.425       .  A
C890        C891   1.407       .  A
C890        H899   1.079       .  S
C891        C892   1.405       .  A
C891        S895   1.803       .  S
C892        C893   1.399       .  A
C893        C894   1.394       .  A
C893        H900   1.082       .  S
C894        S896   1.803       .  S
S895        H898   1.407       .  S
S896        H897   1.406       .  S
C901        C902   1.402       .  A
C901        C906   1.407       .  A
C902        C903   1.402       .  A
C902        H911   1.083       .  S
C903        C904   1.424       .  A
C903        S907   1.810       .  S
C904        C905   1.421       .  A
C905        C906   1.406       .  A
C905        H912   1.075       .  S
C906        S908   1.805       .  S
S907        H910   1.406       .  S
S908        H909   1.406       .  S
C913        C914   1.424       .  A
C913        C918   1.425       .  A
C914        C915   1.403       .  A
C914        H923   1.081       .  S
C915        C916   1.406       .  A
C915        S919   1.801       .  S
C916        C917   1.406       .  A
C917        C918   1.399       .  A
C917        H924   1.082       .  S
C918        S920   1.807       .  S
S919        H922   1.407       .  S
S920        H921   1.407       .  S
C925        C926   1.407       .  A
C925        C930   1.435       .  A
C926        C927   1.405       .  A
C926        H935   1.079       .  S
C927        C928   1.422       .  A
C927        S931   1.801       .  S
C928        C929   1.397       .  A
C929        C930   1.403       .  A
C929        H936   1.082       .  S
C930        S932   1.813       .  S
S931        H934   1.408       .  S
S932        H933   1.406       .  S
O937        C947   1.277       .  A
O937      Ni1881   1.900       .  S
O938        C948   1.274       .  A
O938       Ni945   1.902       .  S
O939        C949   1.290       .  A
O940        C950   1.290       .  A
O940      Ni2817   1.955       .  S
O941        C950   1.271       .  A
O942        C949   1.272       .  A
O942      Ni2818   1.873       .  S
O943        C948   1.291       .  A
O943      Ni1882   1.944       .  S
O944        C947   1.287       .  A
O944       Ni946   1.941       .  S
Ni945      O1873   1.905       .  S
Ni945      O2812   1.953       .  S
Ni945     Ni1882   2.383       .  S
Ni946      O2814   1.878   1_455  S
Ni946      O1879   1.936   1_465  S
Ni946     Ni1881   2.383       .  S
C947       C1369   1.484       .  S
C948       C1396   1.501       .  S
C949       C1384   1.489       .  S
C950       C1360   1.481       .  S
O951        C961   1.277       .  A
O951      Ni1895   1.902   1_565  S
O952        C962   1.275       .  A
O952       Ni959   1.897       .  S
O953        C963   1.289       .  A
O953      Ni2831   1.948   1_455  S
O954        C964   1.287       .  A
O955        C964   1.278       .  A
O956        C963   1.276       .  A
O956      Ni2832   1.896   1_455  S
O957        C962   1.290       .  A
O957       Ni960   1.952       .  S
O958        C961   1.289       .  A
O958      Ni1896   1.949   1_465  S
Ni959      O1887   1.903       .  S
Ni959      O2825   1.957       .  S
Ni959      Ni960   2.382       .  S
Ni960      O2828   1.897       .  S
Ni960      O1894   1.953       .  S
C961       C1309   1.495       .  S
C962       C1336   1.489       .  S
C963       C1321   1.495       .  S
C964       C1345   1.488       .  S
N965        H997   1.042       .  S
N965       C1438   1.355       .  A
N965        C969   1.356       .  A
N966        C973   1.358       .  A
N966        C974   1.354       .  A
N967        H998   1.041       .  S
N967       C1440   1.356       .  A
N967        C971   1.357       .  A
N968        C975   1.350       .  A
N968        C976   1.349       .  A
C969        C977   1.389       .  A
C969        C985   1.420       .  A
C970       N1433   1.352   1_554  A
C970        C986   1.413       .  A
C970        C978   1.384       .  A
C971        C979   1.385       .  A
C971        C988   1.417       .  A
C972       N1435   1.359   1_554  A
C972        C987   1.419       .  A
C972        C980   1.378       .  A
C973        C985   1.413       .  A
C973        C981   1.380       .  A
C974        C988   1.426       .  A
C974        C982   1.388       .  A
C975        C983   1.382       .  A
C975        C986   1.402       .  A
C976        C984   1.387       .  A
C976        C987   1.413       .  A
C977       C1446   1.378       .  A
C977        H989   1.081       .  S
C978       C1445   1.379   1_554  A
C978        H990   1.080       .  S
C979       C1448   1.373       .  A
C979        H991   1.082       .  S
C980       C1447   1.374   1_554  A
C980        H992   1.078       .  S
C981        C982   1.376       .  A
C981        H993   1.082       .  S
C982        H994   1.082       .  S
C983        C984   1.375       .  A
C983        H995   1.082       .  S
C984        H996   1.082       .  S
C985       C1037   1.503       .  S
C986       C1030   1.485       .  S
C987       C1140   1.530       .  S
C988       C1128   1.530       .  S
C999       C1000   1.530       .  S
C999       C1005   1.527       .  S
C999       C1003   1.553       .  S
C999       C1381   1.544       .  S
C1000      H1007   1.086       .  S
C1000      C1001   1.358       .  D
C1001      C1075   1.498       .  S
C1001      C1002   1.547       .  S
C1002      C1006   1.552       .  S
C1002      C1004   1.550       .  S
C1002      H1008   1.090       .  S
C1003      H1009   1.080       .  S
C1003      C1004   1.383       .  D
C1004      C1111   1.534       .  S
C1005      H1010   1.081       .  S
C1005      C1006   1.364       .  D
C1006      C1297   1.519       .  S
C1011      C1012   1.525       .  S
C1011      C1017   1.536       .  S
C1011      C1015   1.558       .  S
C1011      C1348   1.550       .  S
C1012      H1019   1.085       .  S
C1012      C1013   1.358       .  D
C1013      C1285   1.492       .  S
C1013      C1014   1.542       .  S
C1014      C1018   1.545       .  S
C1014      C1016   1.548       .  S
C1014      H1020   1.103       .  S
C1015      H1021   1.082       .  S
C1015      C1016   1.388       .  D
C1016      C1112   1.539       .  S
C1017      H1022   1.083       .  S
C1017      C1018   1.364       .  D
C1018      C1076   1.498       .  S
C1023      C1024   1.527       .  S
C1023      C1029   1.534       .  S
C1023      C1027   1.556       .  S
C1023      C1324   1.545       .  S
C1024      H1031   1.089       .  S
C1024      C1025   1.347       .  D
C1025      C1273   1.461       .  S
C1025      C1026   1.530       .  S
C1026      C1030   1.538       .  S
C1026      C1028   1.561       .  S
C1026      H1032   1.093       .  S
C1027      H1033   1.079       .  S
C1027      C1028   1.392       .  D
C1028      C1202   1.544       .  S
C1029      H1034   1.086       .  S
C1029      C1030   1.355       .  D
C1035      C1036   1.537       .  S
C1035      C1041   1.521       .  S
C1035      C1039   1.557       .  S
C1035      C1357   1.547       .  S
C1036      H1043   1.084       .  S
C1036      C1037   1.362       .  D
C1037      C1038   1.552       .  S
C1038      C1042   1.539       .  S
C1038      C1040   1.567       .  S
C1038      H1044   1.105       .  S
C1039      H1045   1.081       .  S
C1039      C1040   1.391       .  D
C1040      C1201   1.548       .  S
C1041      H1046   1.089       .  S
C1041      C1042   1.347       .  D
C1042      C1261   1.475       .  S
C1047      C1288   1.472       .  S
C1047      C1516   1.411   1_554  A
C1048      C1300   1.482       .  S
C1048      C1515   1.411       .  A
C1049      C1050   1.406       .  A
C1049      H1054   1.081       .  S
C1050      C1264   1.511       .  S
C1050      C1519   1.414       .  A
C1051      C1276   1.436       .  S
C1051      C1518   1.411   1_554  A
C1051      C1052   1.392       .  A
C1052      H1053   1.086       .  S
N1055      H1087   1.037       .  S
N1055      C1528   1.359       .  A
N1055      C1059   1.352       .  A
N1056      C1063   1.363       .  A
N1056      C1064   1.365       .  A
N1057      H1088   1.044       .  S
N1057      C1530   1.364       .  A
N1057      C1061   1.365       .  A
N1058      C1065   1.355       .  A
N1058      C1066   1.352       .  A
C1059      C1067   1.384       .  A
C1059      C1075   1.413       .  A
C1060      N1523   1.361   1_554  A
C1060      C1076   1.416       .  A
C1060      C1068   1.382       .  A
C1061      C1069   1.389       .  A
C1061      C1078   1.442       .  A
C1062      N1525   1.362   1_554  A
C1062      C1077   1.429       .  A
C1062      C1070   1.385       .  A
C1063      C1075   1.417       .  A
C1063      C1071   1.370       .  A
C1064      C1078   1.448       .  A
C1064      C1072   1.391       .  A
C1065      C1073   1.381       .  A
C1065      C1076   1.408       .  A
C1066      C1074   1.375       .  A
C1066      C1077   1.413       .  A
C1067      C1536   1.353       .  A
C1067      H1079   1.071       .  S
C1068      C1535   1.355   1_554  A
C1068      H1080   1.074       .  S
C1069      C1538   1.385       .  A
C1069      H1081   1.082       .  S
C1070      C1537   1.384   1_554  A
C1070      H1082   1.082       .  S
C1071      C1072   1.353       .  A
C1071      H1083   1.083       .  S
C1072      H1084   1.056       .  S
C1073      C1074   1.362       .  A
C1073      H1085   1.081       .  S
C1074      H1086   1.064       .  S
C1077      C1152   1.531       .  S
C1078      C1164   1.558       .  S
N1089      H1121   1.040       .  S
N1089      C1094   1.352       .  A
N1089      C1093   1.353       .  A
N1090      C1097   1.363       .  A
N1090      C1098   1.356       .  A
N1091      H1122   1.044       .  S
N1091      C1096   1.360       .  A
N1091      C1095   1.358       .  A
N1092      C1099   1.360       .  A
N1092      C1100   1.354       .  A
C1093      C1101   1.378       .  A
C1093      C1109   1.405       .  A
C1094      C1110   1.404       .  A
C1094      C1102   1.378       .  A
C1095      C1103   1.379       .  A
C1095      C1112   1.414       .  A
C1096      C1111   1.411       .  A
C1096      C1104   1.380       .  A
C1097      C1109   1.415       .  A
C1097      C1105   1.378       .  A
C1098      C1112   1.423       .  A
C1098      C1106   1.380       .  A
C1099      C1107   1.379       .  A
C1099      C1110   1.411       .  A
C1100      C1108   1.380       .  A
C1100      C1111   1.418       .  A
C1101      C1102   1.356       .  A
C1101      H1113   1.066       .  S
C1102      H1114   1.071       .  S
C1103      C1104   1.366       .  A
C1103      H1115   1.074       .  S
C1104      H1116   1.081       .  S
C1105      C1106   1.361       .  A
C1105      H1117   1.081       .  S
C1106      H1118   1.066       .  S
C1107      C1108   1.363       .  A
C1107      H1119   1.082       .  S
C1108      H1120   1.070       .  S
C1109      C1137   1.504       .  S
C1110      C1130   1.491       .  S
C1123      C1124   1.524       .  S
C1123      C1129   1.534       .  S
C1123      C1127   1.556       .  S
C1123      C1372   1.550       .  S
C1124      H1131   1.087       .  S
C1124      C1125   1.363       .  D
C1125      C1249   1.507       .  S
C1125      C1126   1.537       .  S
C1126      C1130   1.547       .  S
C1126      C1128   1.546       .  S
C1126      H1132   1.082       .  S
C1127      H1133   1.081       .  S
C1127      C1128   1.391       .  D
C1129      H1134   1.082       .  S
C1129      C1130   1.359       .  D
C1135      C1136   1.550       .  S
C1135      C1141   1.513       .  S
C1135      C1139   1.549       .  S
C1135      C1312   1.550       .  S
C1136      H1143   1.084       .  S
C1136      C1137   1.370       .  D
C1137      C1138   1.540       .  S
C1138      C1142   1.546       .  S
C1138      C1140   1.556       .  S
C1138      H1144   1.097       .  S
C1139      H1145   1.078       .  S
C1139      C1140   1.388       .  D
C1141      H1146   1.089       .  S
C1141      C1142   1.346       .  D
C1142      C1237   1.486       .  S
C1147      C1148   1.536       .  S
C1147      C1153   1.518       .  S
C1147      C1151   1.546       .  S
C1147      C1333   1.545       .  S
C1148      H1155   1.083       .  S
C1148      C1149   1.368       .  D
C1149      C1199   1.508       .  S
C1149      C1150   1.562       .  S
C1150      C1154   1.561       .  S
C1150      C1152   1.567       .  S
C1150      H1156   1.103       .  S
C1151      H1157   1.082       .  S
C1151      C1152   1.374       .  D
C1153      H1158   1.087       .  S
C1153      C1154   1.361       .  D
C1154      C1225   1.521       .  S
C1159      C1160   1.519       .  S
C1159      C1165   1.541       .  S
C1159      C1163   1.571       .  S
C1159      C1393   1.545       .  S
C1160      H1167   1.089       .  S
C1160      C1161   1.342       .  D
C1161      C1213   1.482       .  S
C1161      C1162   1.559       .  S
C1162      C1166   1.529       .  S
C1162      C1164   1.561       .  S
C1162      H1168   1.091       .  S
C1163      H1169   1.080       .  S
C1163      C1164   1.395       .  D
C1165      H1170   1.085       .  S
C1165      C1166   1.364       .  D
C1166      C1200   1.511       .  S
C1171      C1240   1.478       .  S
C1171      C1172   1.416       .  A
C1171      C3048   1.402   1_455  A
C1172      C1252   1.489       .  S
C1172      C3045   1.402   1_455  A
C1173      C3044   1.404       .  A
C1173      C1174   1.404       .  A
C1173      H1178   1.084       .  S
C1174      C1216   1.483       .  S
C1174      C1175   1.412       .  A
C1175      C1228   1.483       .  S
C1175      C1176   1.398       .  A
C1176      C3043   1.402       .  A
C1176      H1177   1.085       .  S
N1179      H1211   1.042       .  S
N1179      C1184   1.359       .  A
N1179      C1183   1.359       .  A
N1180      C1187   1.359       .  A
N1180      C1188   1.357       .  A
N1181      H1212   1.044       .  S
N1181      C1186   1.366       .  A
N1181      C1185   1.365       .  A
N1182      C1189   1.358       .  A
N1182      C1190   1.355       .  A
C1183      C1191   1.372       .  A
C1183      C1199   1.411       .  A
C1184      C1200   1.421       .  A
C1184      C1192   1.381       .  A
C1185      C1193   1.384       .  A
C1185      C1202   1.429       .  A
C1186      C1201   1.426       .  A
C1186      C1194   1.378       .  A
C1187      C1199   1.410       .  A
C1187      C1195   1.374       .  A
C1188      C1202   1.432       .  A
C1188      C1196   1.394       .  A
C1189      C1197   1.378       .  A
C1189      C1200   1.409       .  A
C1190      C1198   1.388       .  A
C1190      C1201   1.422       .  A
C1191      C1192   1.358       .  A
C1191      H1203   1.067       .  S
C1192      H1204   1.066       .  S
C1193      C1194   1.367       .  A
C1193      H1205   1.081       .  S
C1194      H1206   1.074       .  S
C1195      C1196   1.363       .  A
C1195      H1207   1.083       .  S
C1196      H1208   1.071       .  S
C1197      C1198   1.362       .  A
C1197      H1209   1.081       .  S
C1198      H1210   1.069       .  S
C1213      C1214   1.397       .  A
C1213      C1218   1.420       .  A
C1214      C1215   1.390       .  A
C1214      H1223   1.080       .  S
C1215      C1216   1.410       .  A
C1215      S1219   1.797       .  S
C1216      C1217   1.402       .  A
C1217      C1218   1.396       .  A
C1217      H1224   1.082       .  S
C1218      S1220   1.805       .  S
S1219      H1222   1.407       .  S
S1220      H1221   1.399       .  S
C1225      C1226   1.413       .  A
C1225      C1230   1.425       .  A
C1226      C1227   1.387       .  A
C1226      H1235   1.083       .  S
C1227      C1228   1.405       .  A
C1227      S1231   1.805       .  S
C1228      C1229   1.406       .  A
C1229      C1230   1.414       .  A
C1229      H1236   1.083       .  S
C1230      S1232   1.806       .  S
S1231      H3106   1.407       .  S
S1232      H1233   1.407       .  S
H1234      S3103   1.406   1_455  S
C1237      C1238   1.410       .  A
C1237      C1242   1.406       .  A
C1238      C1239   1.393       .  A
C1238      H1247   1.084       .  S
C1239      C1240   1.409       .  A
C1239      S1243   1.803       .  S
C1240      C1241   1.406       .  A
C1241      C1242   1.402       .  A
C1241      H1248   1.083       .  S
C1242      S1244   1.802       .  S
S1243      H1246   1.405       .  S
S1244      H1245   1.407       .  S
C1249      C1250   1.404       .  A
C1249      C1254   1.420       .  A
C1250      C1251   1.388       .  A
C1250      H1259   1.084       .  S
C1251      C1252   1.413       .  A
C1251      S1255   1.800       .  S
C1252      C1253   1.407       .  A
C1253      C1254   1.410       .  A
C1253      H1260   1.082       .  S
C1254      S1256   1.806       .  S
S1255      H1258   1.403   1_455  S
S1256      H1257   1.406       .  S
C1261      C1262   1.393       .  A
C1261      C1266   1.410       .  A
C1262      C1263   1.403       .  A
C1262      H1271   1.084       .  S
C1263      C1264   1.435       .  A
C1263      S1735   1.821       .  S
C1264      C1265   1.407       .  A
C1265      C1266   1.385       .  A
C1265      H1272   1.082       .  S
C1266      S1268   1.803       .  S
S1267      C1731   1.831   1_554  S
S1267      H1270   2.904       .  S
S1268      H1269   1.399       .  S
C1273      C1274   1.688       .  A
C1273      C1278   1.702       .  A
C1274      C1275   1.675       .  A
C1274      H1283   1.078       .  S
C1275      C1276   1.696       .  A
C1275      S1747   1.797   1_554  S
C1276      C1277   1.690       .  A
C1277      C1278   1.679       .  A
C1277      H1284   1.082       .  S
C1278      S1280   1.790       .  S
S1279      C1743   1.797       .  S
S1279      H1282   1.405       .  S
S1280      H1281   1.395       .  S
C1285      C1286   1.409       .  A
C1285      C1290   1.420       .  A
C1286      C1287   1.399       .  A
C1286      H1295   1.081       .  S
C1287      C1288   1.406       .  A
C1287      S1291   1.797       .  S
C1288      C1289   1.395       .  A
C1289      C1290   1.388       .  A
C1289      H1296   1.085       .  S
C1290      S1292   1.802       .  S
S1291      H1762   1.405       .  S
S1292      H1293   1.408       .  S
H1294      S1759   1.406       .  S
C1297      C1298   1.423       .  A
C1297      C1302   1.423       .  A
C1298      C1299   1.395       .  A
C1298      H1307   1.076       .  S
C1299      C1300   1.402       .  A
C1299      S1303   1.805       .  S
C1300      C1301   1.395       .  A
C1301      C1302   1.398       .  A
C1301      H1308   1.075       .  S
C1302      S1304   1.806       .  S
S1304      H1305   1.406       .  S
C1309      C1310   1.404       .  A
C1309      C1314   1.407       .  A
C1310      C1311   1.404       .  A
C1310      H1319   1.082       .  S
C1311      C1312   1.428       .  A
C1311      S1315   1.812       .  S
C1312      C1313   1.421       .  A
C1313      C1314   1.411       .  A
C1313      H1320   1.077       .  S
C1314      S1316   1.807       .  S
S1315      H1318   1.407       .  S
S1316      H1317   1.407       .  S
C1321      C1322   1.406       .  A
C1321      C1326   1.408       .  A
C1322      C1323   1.404       .  A
C1322      H1331   1.083       .  S
C1323      C1324   1.421       .  A
C1323      S1327   1.799       .  S
C1324      C1325   1.423       .  A
C1325      C1326   1.401       .  A
C1325      H1332   1.081       .  S
C1326      S1328   1.801       .  S
S1327      H1330   1.407       .  S
S1328      H1329   1.406       .  S
C1333      C1334   1.418       .  A
C1333      C1338   1.429       .  A
C1334      C1335   1.408       .  A
C1334      H1343   1.078       .  S
C1335      C1336   1.408       .  A
C1335      S1339   1.801       .  S
C1336      C1337   1.401       .  A
C1337      C1338   1.400       .  A
C1337      H1344   1.081       .  S
C1338      S1340   1.815       .  S
S1339      H1342   1.408       .  S
S1340      H1341   1.407       .  S
C1345      C1346   1.397       .  A
C1345      C1350   1.410       .  A
C1346      C1347   1.395       .  A
C1346      H1355   1.083       .  S
C1347      C1348   1.425       .  A
C1347      S1351   1.799       .  S
C1348      C1349   1.422       .  A
C1349      C1350   1.411       .  A
C1349      H1356   1.078       .  S
C1350      S1352   1.803       .  S
S1351      H1354   1.407       .  S
S1352      H1353   1.406       .  S
C1357      C1358   1.425       .  A
C1357      C1362   1.426       .  A
C1358      C1359   1.408       .  A
C1358      H1367   1.078       .  S
C1359      C1360   1.404       .  A
C1359      S1363   1.803       .  S
C1360      C1361   1.398       .  A
C1361      C1362   1.395       .  A
C1361      H1368   1.083       .  S
C1362      S1364   1.800       .  S
S1363      H1366   1.407       .  S
S1364      H1365   1.407       .  S
C1369      C1370   1.401       .  A
C1369      C1374   1.407       .  A
C1370      C1371   1.400       .  A
C1370      H1379   1.083       .  S
C1371      C1372   1.424       .  A
C1371      S1375   1.810       .  S
C1372      C1373   1.422       .  A
C1373      C1374   1.407       .  A
C1373      H1380   1.076       .  S
C1374      S1376   1.805       .  S
S1375      H1378   1.407       .  S
S1376      H1377   1.407       .  S
C1381      C1382   1.426       .  A
C1381      C1386   1.424       .  A
C1382      C1383   1.405       .  A
C1382      H1391   1.081       .  S
C1383      C1384   1.404       .  A
C1383      S1387   1.802       .  S
C1384      C1385   1.405       .  A
C1385      C1386   1.397       .  A
C1385      H1392   1.081       .  S
C1386      S1388   1.807       .  S
S1387      H1390   1.407       .  S
S1388      H1389   1.407       .  S
C1393      C1394   1.405       .  A
C1393      C1398   1.434       .  A
C1394      C1395   1.406       .  A
C1394      H1403   1.079       .  S
C1395      C1396   1.424       .  A
C1395      S1399   1.801       .  S
C1396      C1397   1.397       .  A
C1397      C1398   1.402       .  A
C1397      H1404   1.082       .  S
C1398      S1400   1.812       .  S
S1399      H1402   1.409       .  S
S1400      H1401   1.406       .  S
O1405      C1415   1.275       .  A
O1405     Ni2349   1.900       .  S
O1406      C1416   1.276       .  A
O1406     Ni1413   1.911       .  S
O1407      C1417   1.290       .  A
O1408      C1418   1.290       .  A
O1408     Ni3285   1.952       .  S
O1409      C1418   1.272       .  A
O1410      C1417   1.273       .  A
O1410     Ni3286   1.879       .  S
O1411      C1416   1.290       .  A
O1411     Ni2350   1.943       .  S
O1412      C1415   1.289       .  A
O1412     Ni1414   1.946       .  S
Ni1413     O2341   1.909       .  S
Ni1413     O3280   1.952       .  S
Ni1413    Ni2350   2.382       .  S
Ni1414     O3282   1.879   1_455  S
Ni1414     O2347   1.943   1_465  S
Ni1414    Ni2349   2.382       .  S
C1415      C1837   1.485       .  S
C1416      C1864   1.500       .  S
C1417      C1852   1.489       .  S
C1418      C1828   1.479       .  S
O1419      C1429   1.274       .  A
O1419     Ni2363   1.896   1_465  S
O1420      C1430   1.276       .  A
O1420     Ni1427   1.896       .  S
O1421      C1431   1.290       .  A
O1421     Ni3299   1.953       .  S
O1422      C1432   1.289       .  A
O1423      C1432   1.276       .  A
O1424      C1431   1.276       .  A
O1424     Ni3300   1.898       .  S
O1425      C1430   1.289       .  A
O1425     Ni1428   1.953       .  S
O1426      C1429   1.289       .  A
O1426     Ni2364   1.943   1_465  S
Ni1427     O2355   1.899       .  S
Ni1427     O3293   1.951       .  S
Ni1427    Ni1428   2.384       .  S
Ni1428     O3296   1.886       .  S
Ni1428     O2362   1.951       .  S
C1429      C1777   1.483       .  S
C1430      C1804   1.489       .  S
C1431      C1789   1.496       .  S
C1432      C1813   1.491       .  S
N1433      H1465   1.043       .  S
N1433      C1437   1.354       .  A
N1434      C1441   1.358       .  A
N1434      C1442   1.353       .  A
N1435      H1466   1.041       .  S
N1435      C1439   1.358       .  A
N1436      C1443   1.353       .  A
N1436      C1444   1.351       .  A
C1437      C1445   1.390       .  A
C1437      C1453   1.419       .  A
C1438      C1454   1.418       .  A
C1438      C1446   1.384       .  A
C1439      C1447   1.385       .  A
C1439      C1456   1.422       .  A
C1440      C1455   1.418       .  A
C1440      C1448   1.380       .  A
C1441      C1453   1.412       .  A
C1441      C1449   1.380       .  A
C1442      C1456   1.425       .  A
C1442      C1450   1.387       .  A
C1443      C1451   1.382       .  A
C1443      C1454   1.408       .  A
C1444      C1452   1.387       .  A
C1444      C1455   1.416       .  A
C1445      H1457   1.081       .  S
C1446      H1458   1.079       .  S
C1447      H1459   1.081       .  S
C1448      H1460   1.077       .  S
C1449      C1450   1.376       .  A
C1449      H1461   1.082       .  S
C1450      H1462   1.082       .  S
C1451      C1452   1.377       .  A
C1451      H1463   1.082       .  S
C1452      H1464   1.081       .  S
C1453      C1505   1.501       .  S
C1454      C1498   1.499       .  S
C1455      C1608   1.530       .  S
C1456      C1596   1.534       .  S
C1467      C1468   1.530       .  S
C1467      C1473   1.524       .  S
C1467      C1471   1.555       .  S
C1467      C1849   1.544       .  S
C1468      H1475   1.084       .  S
C1468      C1469   1.359       .  D
C1469      C1543   1.497       .  S
C1469      C1470   1.546       .  S
C1470      C1474   1.547       .  S
C1470      C1472   1.550       .  S
C1470      H1476   1.092       .  S
C1471      H1477   1.083       .  S
C1471      C1472   1.382       .  D
C1472      C1579   1.531       .  S
C1473      H1478   1.083       .  S
C1473      C1474   1.364       .  D
C1474      C1765   1.510       .  S
C1479      C1480   1.526       .  S
C1479      C1485   1.536       .  S
C1479      C1483   1.556       .  S
C1479      C1816   1.551       .  S
C1480      H1487   1.086       .  S
C1480      C1481   1.356       .  D
C1481      C1753   1.489       .  S
C1481      C1482   1.542       .  S
C1482      C1486   1.547       .  S
C1482      C1484   1.544       .  S
C1482      H1488   1.104       .  S
C1483      H1489   1.081       .  S
C1483      C1484   1.387       .  D
C1484      C1580   1.535       .  S
C1485      H1490   1.084       .  S
C1485      C1486   1.365       .  D
C1486      C1544   1.498       .  S
C1491      C1492   1.521       .  S
C1491      C1497   1.539       .  S
C1491      C1495   1.557       .  S
C1491      C1792   1.550       .  S
C1492      H1499   1.090       .  S
C1492      C1493   1.344       .  D
C1493      C1741   1.462       .  S
C1493      C1494   1.535       .  S
C1494      C1498   1.546       .  S
C1494      C1496   1.566       .  S
C1494      H1500   1.091       .  S
C1495      H1501   1.081       .  S
C1495      C1496   1.394       .  D
C1496      C1670   1.550       .  S
C1497      H1502   1.085       .  S
C1497      C1498   1.360       .  D
C1503      C1504   1.537       .  S
C1503      C1509   1.523       .  S
C1503      C1507   1.559       .  S
C1503      C1825   1.549       .  S
C1504      H1511   1.083       .  S
C1504      C1505   1.362       .  D
C1505      C1506   1.550       .  S
C1506      C1510   1.536       .  S
C1506      C1508   1.567       .  S
C1506      H1512   1.104       .  S
C1507      H1513   1.082       .  S
C1507      C1508   1.391       .  D
C1508      C1669   1.551       .  S
C1509      H1514   1.089       .  S
C1509      C1510   1.348       .  D
C1510      C1729   1.474       .  S
C1515      C1756   1.474       .  S
C1516      C1768   1.480       .  S
C1517      C1518   1.408       .  A
C1517      H1522   1.082       .  S
C1518      C1732   1.506       .  S
C1519      C1744   1.436       .  S
C1519      C1520   1.394       .  A
C1520      H1521   1.086       .  S
N1523      H1555   1.036       .  S
N1523      C1527   1.355       .  A
N1524      C1531   1.359       .  A
N1524      C1532   1.363       .  A
N1525      H1556   1.044       .  S
N1525      C1529   1.361       .  A
N1526      C1533   1.358       .  A
N1526      C1534   1.354       .  A
C1527      C1535   1.384       .  A
C1527      C1543   1.418       .  A
C1528      C1544   1.411       .  A
C1528      C1536   1.383       .  A
C1529      C1537   1.388       .  A
C1529      C1546   1.435       .  A
C1530      C1545   1.436       .  A
C1530      C1538   1.386       .  A
C1531      C1543   1.416       .  A
C1531      C1539   1.374       .  A
C1532      C1546   1.440       .  A
C1532      C1540   1.389       .  A
C1533      C1541   1.379       .  A
C1533      C1544   1.410       .  A
C1534      C1542   1.378       .  A
C1534      C1545   1.419       .  A
C1535      H1547   1.070       .  S
C1536      H1548   1.076       .  S
C1537      H1549   1.082       .  S
C1538      H1550   1.082       .  S
C1539      C1540   1.355       .  A
C1539      H1551   1.082       .  S
C1540      H1552   1.056       .  S
C1541      C1542   1.361       .  A
C1541      H1553   1.081       .  S
C1542      H1554   1.065       .  S
C1545      C1620   1.536       .  S
C1546      C1632   1.548       .  S
N1557      H1589   1.040       .  S
N1557      C1562   1.353       .  A
N1557      C1561   1.352       .  A
N1558      C1565   1.362       .  A
N1558      C1566   1.357       .  A
N1559      H1590   1.045       .  S
N1559      C1564   1.359       .  A
N1559      C1563   1.356       .  A
N1560      C1567   1.360       .  A
N1560      C1568   1.353       .  A
C1561      C1569   1.379       .  A
C1561      C1577   1.408       .  A
C1562      C1578   1.406       .  A
C1562      C1570   1.379       .  A
C1563      C1571   1.377       .  A
C1563      C1580   1.407       .  A
C1564      C1579   1.406       .  A
C1564      C1572   1.380       .  A
C1565      C1577   1.417       .  A
C1565      C1573   1.379       .  A
C1566      C1580   1.424       .  A
C1566      C1574   1.380       .  A
C1567      C1575   1.381       .  A
C1567      C1578   1.410       .  A
C1568      C1576   1.379       .  A
C1568      C1579   1.414       .  A
C1569      C1570   1.360       .  A
C1569      H1581   1.064       .  S
C1570      H1582   1.073       .  S
C1571      C1572   1.366       .  A
C1571      H1583   1.077       .  S
C1572      H1584   1.079       .  S
C1573      C1574   1.363       .  A
C1573      H1585   1.081       .  S
C1574      H1586   1.062       .  S
C1575      C1576   1.362       .  A
C1575      H1587   1.080       .  S
C1576      H1588   1.072       .  S
C1577      C1605   1.501       .  S
C1578      C1598   1.493       .  S
C1591      C1592   1.523       .  S
C1591      C1597   1.532       .  S
C1591      C1595   1.549       .  S
C1591      C1840   1.550       .  S
C1592      H1599   1.087       .  S
C1592      C1593   1.365       .  D
C1593      C1717   1.509       .  S
C1593      C1594   1.542       .  S
C1594      C1598   1.551       .  S
C1594      C1596   1.555       .  S
C1594      H1600   1.085       .  S
C1595      H1601   1.080       .  S
C1595      C1596   1.389       .  D
C1597      H1602   1.081       .  S
C1597      C1598   1.358       .  D
C1603      C1604   1.549       .  S
C1603      C1609   1.515       .  S
C1603      C1607   1.542       .  S
C1603      C1780   1.544       .  S
C1604      H1611   1.083       .  S
C1604      C1605   1.367       .  D
C1605      C1606   1.541       .  S
C1606      C1610   1.545       .  S
C1606      C1608   1.558       .  S
C1606      H1612   1.097       .  S
C1607      H1613   1.079       .  S
C1607      C1608   1.388       .  D
C1609      H1614   1.088       .  S
C1609      C1610   1.348       .  D
C1610      C1705   1.489       .  S
C1615      C1616   1.537       .  S
C1615      C1621   1.520       .  S
C1615      C1619   1.548       .  S
C1615      C1801   1.544       .  S
C1616      H1623   1.083       .  S
C1616      C1617   1.364       .  D
C1617      C1667   1.510       .  S
C1617      C1618   1.558       .  S
C1618      C1622   1.562       .  S
C1618      C1620   1.570       .  S
C1618      H1624   1.102       .  S
C1619      H1625   1.082       .  S
C1619      C1620   1.376       .  D
C1621      H1626   1.087       .  S
C1621      C1622   1.360       .  D
C1622      C1693   1.518       .  S
C1627      C1628   1.516       .  S
C1627      C1633   1.546       .  S
C1627      C1631   1.562       .  S
C1627      C1861   1.548       .  S
C1628      H1635   1.089       .  S
C1628      C1629   1.341       .  D
C1629      C1681   1.478       .  S
C1629      C1630   1.557       .  S
C1630      C1634   1.534       .  S
C1630      C1632   1.561       .  S
C1630      H1636   1.093       .  S
C1631      H1637   1.081       .  S
C1631      C1632   1.391       .  D
C1633      H1638   1.084       .  S
C1633      C1634   1.366       .  D
C1634      C1668   1.518       .  S
C1639      C1708   1.472       .  S
C1639      C1640   1.416       .  A
C1639      C3516   1.397       .  A
C1640      C1720   1.492       .  S
C1640      C3513   1.404       .  A
C1641      C3512   1.401       .  A
C1641      C1642   1.403       .  A
C1641      H1646   1.084       .  S
C1642      C1684   1.475       .  S
C1642      C1643   1.410       .  A
C1643      C1696   1.483       .  S
C1643      C1644   1.397       .  A
C1644      C3511   1.400       .  A
C1644      H1645   1.085       .  S
N1647      H1679   1.040       .  S
N1647      C1652   1.362       .  A
N1647      C1651   1.361       .  A
N1648      C1655   1.360       .  A
N1648      C1656   1.359       .  A
N1649      H1680   1.044       .  S
N1649      C1654   1.366       .  A
N1649      C1653   1.365       .  A
N1650      C1657   1.359       .  A
N1650      C1658   1.357       .  A
C1651      C1659   1.374       .  A
C1651      C1667   1.416       .  A
C1652      C1668   1.424       .  A
C1652      C1660   1.378       .  A
C1653      C1661   1.383       .  A
C1653      C1670   1.431       .  A
C1654      C1669   1.428       .  A
C1654      C1662   1.379       .  A
C1655      C1667   1.414       .  A
C1655      C1663   1.375       .  A
C1656      C1670   1.435       .  A
C1656      C1664   1.394       .  A
C1657      C1665   1.378       .  A
C1657      C1668   1.413       .  A
C1658      C1666   1.387       .  A
C1658      C1669   1.426       .  A
C1659      C1660   1.356       .  A
C1659      H1671   1.070       .  S
C1660      H1672   1.062       .  S
C1661      C1662   1.370       .  A
C1661      H1673   1.080       .  S
C1662      H1674   1.074       .  S
C1663      C1664   1.364       .  A
C1663      H1675   1.083       .  S
C1664      H1676   1.070       .  S
C1665      C1666   1.360       .  A
C1665      H1677   1.081       .  S
C1666      H1678   1.068       .  S
C1681      C1682   1.395       .  A
C1681      C1686   1.421       .  A
C1682      C1683   1.388       .  A
C1682      H1691   1.079       .  S
C1683      C1684   1.408       .  A
C1683      S1687   1.799       .  S
C1684      C1685   1.402       .  A
C1685      C1686   1.397       .  A
C1685      H1692   1.084       .  S
C1686      S1688   1.809       .  S
S1687      H1690   1.407       .  S
S1688      H1689   1.401       .  S
C1693      C1694   1.413       .  A
C1693      C1698   1.422       .  A
C1694      C1695   1.390       .  A
C1694      H1703   1.083       .  S
C1695      C1696   1.407       .  A
C1695      S1699   1.808       .  S
C1696      C1697   1.405       .  A
C1697      C1698   1.411       .  A
C1697      H1704   1.083       .  S
C1698      S1700   1.805       .  S
S1699      H3574   1.407       .  S
S1700      H1701   1.406       .  S
H1702      S3571   1.406   1_455  S
C1705      C1706   1.410       .  A
C1705      C1710   1.409       .  A
C1706      C1707   1.389       .  A
C1706      H1715   1.084       .  S
C1707      C1708   1.405       .  A
C1707      S1711   1.802       .  S
C1708      C1709   1.404       .  A
C1709      C1710   1.402       .  A
C1709      H1716   1.083       .  S
C1710      S1712   1.798       .  S
S1711      H1714   1.407       .  S
S1712      H1713   1.407       .  S
C1717      C1718   1.405       .  A
C1717      C1722   1.421       .  A
C1718      C1719   1.388       .  A
C1718      H1727   1.084       .  S
C1719      C1720   1.413       .  A
C1719      S1723   1.800       .  S
C1720      C1721   1.407       .  A
C1721      C1722   1.411       .  A
C1721      H1728   1.082       .  S
C1722      S1724   1.805       .  S
S1723      H1726   1.402   1_455  S
S1724      H1725   1.407       .  S
C1729      C1730   1.395       .  A
C1729      C1734   1.408       .  A
C1730      C1731   1.404       .  A
C1730      H1739   1.084       .  S
C1731      C1732   1.438       .  A
C1732      C1733   1.406       .  A
C1733      C1734   1.383       .  A
C1733      H1740   1.083       .  S
C1734      S1736   1.801       .  S
S1735      H1738   2.901       .  S
S1736      H1737   1.399       .  S
C1741      C1742   1.691       .  A
C1741      C1746   1.704       .  A
C1742      C1743   1.674       .  A
C1742      H1751   1.078       .  S
C1743      C1744   1.693       .  A
C1744      C1745   1.691       .  A
C1745      C1746   1.681       .  A
C1745      H1752   1.082       .  S
C1746      S1748   1.788       .  S
S1747      H1750   1.405       .  S
S1748      H1749   1.395       .  S
C1753      C1754   1.407       .  A
C1753      C1758   1.422       .  A
C1754      C1755   1.397       .  A
C1754      H1763   1.082       .  S
C1755      C1756   1.404       .  A
C1755      S1759   1.795       .  S
C1756      C1757   1.396       .  A
C1757      C1758   1.391       .  A
C1757      H1764   1.084       .  S
C1758      S1760   1.806       .  S
S1760      H1761   1.408       .  S
C1765      C1766   1.418       .  A
C1765      C1770   1.423       .  A
C1766      C1767   1.390       .  A
C1766      H1775   1.078       .  S
C1767      C1768   1.405       .  A
C1767      S1771   1.805       .  S
C1768      C1769   1.395       .  A
C1769      C1770   1.396       .  A
C1769      H1776   1.073       .  S
C1770      S1772   1.804       .  S
S1772      H1773   1.406       .  S
C1777      C1778   1.402       .  A
C1777      C1782   1.402       .  A
C1778      C1779   1.404       .  A
C1778      H1787   1.082       .  S
C1779      C1780   1.429       .  A
C1779      S1783   1.814       .  S
C1780      C1781   1.419       .  A
C1781      C1782   1.405       .  A
C1781      H1788   1.074       .  S
C1782      S1784   1.807       .  S
S1783      H1786   1.406       .  S
S1784      H1785   1.406       .  S
C1789      C1790   1.403       .  A
C1789      C1794   1.407       .  A
C1790      C1791   1.405       .  A
C1790      H1799   1.083       .  S
C1791      C1792   1.425       .  A
C1791      S1795   1.797       .  S
C1792      C1793   1.424       .  A
C1793      C1794   1.405       .  A
C1793      H1800   1.080       .  S
C1794      S1796   1.802       .  S
S1795      H1798   1.407       .  S
S1796      H1797   1.407       .  S
C1801      C1802   1.419       .  A
C1801      C1806   1.426       .  A
C1802      C1803   1.408       .  A
C1802      H1811   1.077       .  S
C1803      C1804   1.409       .  A
C1803      S1807   1.802       .  S
C1804      C1805   1.402       .  A
C1805      C1806   1.398       .  A
C1805      H1812   1.082       .  S
C1806      S1808   1.812       .  S
S1807      H1810   1.405       .  S
S1808      H1809   1.407       .  S
C1813      C1814   1.400       .  A
C1813      C1818   1.408       .  A
C1814      C1815   1.400       .  A
C1814      H1823   1.083       .  S
C1815      C1816   1.428       .  A
C1815      S1819   1.802       .  S
C1816      C1817   1.421       .  A
C1817      C1818   1.408       .  A
C1817      H1824   1.079       .  S
C1818      S1820   1.802       .  S
S1819      H1822   1.406       .  S
S1820      H1821   1.405       .  S
C1825      C1826   1.425       .  A
C1825      C1830   1.426       .  A
C1826      C1827   1.408       .  A
C1826      H1835   1.077       .  S
C1827      C1828   1.403       .  A
C1827      S1831   1.803       .  S
C1828      C1829   1.397       .  A
C1829      C1830   1.396       .  A
C1829      H1836   1.082       .  S
C1830      S1832   1.800       .  S
S1831      H1834   1.407       .  S
S1832      H1833   1.406       .  S
C1837      C1838   1.402       .  A
C1837      C1842   1.405       .  A
C1838      C1839   1.403       .  A
C1838      H1847   1.083       .  S
C1839      C1840   1.426       .  A
C1839      S1843   1.812       .  S
C1840      C1841   1.421       .  A
C1841      C1842   1.405       .  A
C1841      H1848   1.075       .  S
C1842      S1844   1.804       .  S
S1843      H1846   1.407       .  S
S1844      H1845   1.407       .  S
C1849      C1850   1.425       .  A
C1849      C1854   1.423       .  A
C1850      C1851   1.407       .  A
C1850      H1859   1.078       .  S
C1851      C1852   1.406       .  A
C1851      S1855   1.802       .  S
C1852      C1853   1.402       .  A
C1853      C1854   1.395       .  A
C1853      H1860   1.082       .  S
C1854      S1856   1.808       .  S
S1855      H1858   1.405       .  S
S1856      H1857   1.406       .  S
C1861      C1862   1.412       .  A
C1861      C1866   1.435       .  A
C1862      C1863   1.407       .  A
C1862      H1871   1.079       .  S
C1863      C1864   1.420       .  A
C1863      S1867   1.802       .  S
C1864      C1865   1.397       .  A
C1865      C1866   1.404       .  A
C1865      H1872   1.082       .  S
C1866      S1868   1.812       .  S
S1867      H1870   1.407       .  S
S1868      H1869   1.406       .  S
O1873      C1883   1.277       .  A
O1874      C1884   1.273       .  A
O1874     Ni1881   1.901   1_645  S
O1875      C1885   1.291       .  A
O1875     Ni2817   1.956   1_655  S
O1876      C1886   1.290       .  A
O1877      C1886   1.272       .  A
O1877     Ni2818   1.876   1_545  S
O1878      C1885   1.272       .  A
O1879      C1884   1.289       .  A
O1880      C1883   1.288       .  A
O1880     Ni1882   1.940       .  S
Ni1881     O2811   1.954   1_455  S
Ni1882     O2813   1.880       .  S
C1883      C2305   1.487       .  S
C1884      C2332   1.492       .  S
C1885      C2320   1.486       .  S
C1886      C2296   1.484       .  S
O1887      C1897   1.276       .  A
O1888      C1898   1.275       .  A
O1888     Ni1895   1.892   1_655  S
O1889      C1899   1.288       .  A
O1890      C1900   1.288       .  A
O1890     Ni2831   1.948       .  S
O1891      C1900   1.277       .  A
O1891     Ni2832   1.898       .  S
O1892      C1899   1.277       .  A
O1893      C1898   1.288       .  A
O1893     Ni1896   1.949       .  S
O1894      C1897   1.290       .  A
Ni1895     O2826   1.950   1_445  S
Ni1895    Ni1896   2.382   1_455  S
Ni1896     O2827   1.897   1_545  S
C1897      C2245   1.493       .  S
C1898      C2272   1.486       .  S
C1899      C2257   1.492       .  S
C1900      C2281   1.487       .  S
N1901      H1933   1.042       .  S
N1901      C2374   1.354       .  A
N1901      C1905   1.356       .  A
N1902      C1909   1.354       .  A
N1902      C1910   1.350       .  A
N1903      H1934   1.040       .  S
N1903      C2376   1.357       .  A
N1903      C1907   1.355       .  A
N1904      C1911   1.349       .  A
N1904      C1912   1.348       .  A
C1905      C1913   1.388       .  A
C1905      C1921   1.419       .  A
C1906      N2369   1.352   1_554  A
C1906      C1922   1.412       .  A
C1906      C1914   1.384       .  A
C1907      C1915   1.385       .  A
C1907      C1924   1.420       .  A
C1908      N2371   1.359   1_554  A
C1908      C1923   1.423       .  A
C1908      C1916   1.383       .  A
C1909      C1921   1.410       .  A
C1909      C1917   1.381       .  A
C1910      C1924   1.422       .  A
C1910      C1918   1.388       .  A
C1911      C1919   1.382       .  A
C1911      C1922   1.402       .  A
C1912      C1920   1.387       .  A
C1912      C1923   1.412       .  A
C1913      C2382   1.376       .  A
C1913      H1925   1.081       .  S
C1914      C2381   1.378   1_554  A
C1914      H1926   1.080       .  S
C1915      C2384   1.376       .  A
C1915      H1927   1.082       .  S
C1916      C2383   1.378   1_554  A
C1916      H1928   1.080       .  S
C1917      C1918   1.377       .  A
C1917      H1929   1.082       .  S
C1918      H1930   1.082       .  S
C1919      C1920   1.375       .  A
C1919      H1931   1.082       .  S
C1920      H1932   1.082       .  S
C1921      C1973   1.498       .  S
C1922      C1966   1.483       .  S
C1923      C2076   1.530       .  S
C1924      C2064   1.526       .  S
C1935      C1936   1.532       .  S
C1935      C1941   1.526       .  S
C1935      C1939   1.557       .  S
C1935      C2317   1.547       .  S
C1936      H1943   1.084       .  S
C1936      C1937   1.359       .  D
C1937      C2011   1.492       .  S
C1937      C1938   1.539       .  S
C1938      C1942   1.548       .  S
C1938      C1940   1.546       .  S
C1938      H1944   1.090       .  S
C1939      H1945   1.082       .  S
C1939      C1940   1.384       .  D
C1940      C2047   1.536       .  S
C1941      H1946   1.084       .  S
C1941      C1942   1.365       .  D
C1942      C2233   1.509       .  S
C1947      C1948   1.525       .  S
C1947      C1953   1.537       .  S
C1947      C1951   1.558       .  S
C1947      C2284   1.556       .  S
C1948      H1955   1.086       .  S
C1948      C1949   1.357       .  D
C1949      C2221   1.495       .  S
C1949      C1950   1.544       .  S
C1950      C1954   1.553       .  S
C1950      C1952   1.549       .  S
C1950      H1956   1.104       .  S
C1951      H1957   1.082       .  S
C1951      C1952   1.388       .  D
C1952      C2048   1.540       .  S
C1953      H1958   1.083       .  S
C1953      C1954   1.366       .  D
C1954      C2012   1.503       .  S
C1959      C1960   1.528       .  S
C1959      C1965   1.535       .  S
C1959      C1963   1.553       .  S
C1959      C2260   1.544       .  S
C1960      H1967   1.089       .  S
C1960      C1961   1.346       .  D
C1961      C2209   1.466       .  S
C1961      C1962   1.532       .  S
C1962      C1966   1.537       .  S
C1962      C1964   1.562       .  S
C1962      H1968   1.091       .  S
C1963      H1969   1.080       .  S
C1963      C1964   1.390       .  D
C1964      C2138   1.543       .  S
C1965      H1970   1.085       .  S
C1965      C1966   1.358       .  D
C1971      C1972   1.540       .  S
C1971      C1977   1.522       .  S
C1971      C1975   1.555       .  S
C1971      C2293   1.542       .  S
C1972      H1979   1.084       .  S
C1972      C1973   1.365       .  D
C1973      C1974   1.542       .  S
C1974      C1978   1.537       .  S
C1974      C1976   1.565       .  S
C1974      H1980   1.104       .  S
C1975      H1981   1.082       .  S
C1975      C1976   1.387       .  D
C1976      C2137   1.541       .  S
C1977      H1982   1.089       .  S
C1977      C1978   1.345       .  D
C1978      C2197   1.474       .  S
C1983      C2224   1.479       .  S
C1983      C2452   1.412   1_554  A
C1983      C2924   1.393       .  A
C1984      C2236   1.481       .  S
C1984      C2451   1.412       .  A
C1984      C2921   1.398       .  A
C1985      C2920   1.400       .  A
C1985      C1986   1.406   1_565  A
C1985      H1990   1.081   1_565  S
C1986      C2200   1.515       .  S
C1986      C2455   1.415       .  A
C1987      C2212   1.440       .  S
C1987      C2454   1.413   1_554  A
C1987      C1988   1.395   1_545  A
C1988      C2919   1.391       .  A
C1988      H1989   1.086       .  S
N1991      H2023   1.037       .  S
N1991      C2464   1.362       .  A
N1991      C1995   1.352       .  A
N1992      C1999   1.359       .  A
N1992      C2000   1.365       .  A
N1993      H2024   1.044       .  S
N1993      C2466   1.362       .  A
N1993      C1997   1.361       .  A
N1994      C2001   1.357       .  A
N1994      C2002   1.352       .  A
C1995      C2003   1.385       .  A
C1995      C2011   1.415       .  A
C1996      N2459   1.360   1_554  A
C1996      C2012   1.415       .  A
C1996      C2004   1.382       .  A
C1997      C2005   1.389       .  A
C1997      C2014   1.436       .  A
C1998      N2461   1.363   1_554  A
C1998      C2013   1.432       .  A
C1998      C2006   1.386       .  A
C1999      C2011   1.416       .  A
C1999      C2007   1.374       .  A
C2000      C2014   1.442       .  A
C2000      C2008   1.391       .  A
C2001      C2009   1.380       .  A
C2001      C2012   1.412       .  A
C2002      C2010   1.377       .  A
C2002      C2013   1.419       .  A
C2003      C2472   1.354       .  A
C2003      H2015   1.074       .  S
C2004      C2471   1.355   1_554  A
C2004      H2016   1.073       .  S
C2005      C2474   1.385       .  A
C2005      H2017   1.082       .  S
C2006      C2473   1.385   1_554  A
C2006      H2018   1.082       .  S
C2007      C2008   1.354       .  A
C2007      H2019   1.083       .  S
C2008      H2020   1.059       .  S
C2009      C2010   1.365       .  A
C2009      H2021   1.081       .  S
C2010      H2022   1.061       .  S
C2013      C2088   1.533       .  S
C2014      C2100   1.550       .  S
N2025      H2057   1.040       .  S
N2025      C2030   1.350       .  A
N2025      C2029   1.354       .  A
N2026      C2033   1.363       .  A
N2026      C2034   1.355       .  A
N2027      H2058   1.044       .  S
N2027      C2032   1.361       .  A
N2027      C2031   1.359       .  A
N2028      C2035   1.359       .  A
N2028      C2036   1.356       .  A
C2029      C2037   1.378       .  A
C2029      C2045   1.406       .  A
C2030      C2046   1.400       .  A
C2030      C2038   1.378       .  A
C2031      C2039   1.377       .  A
C2031      C2048   1.414       .  A
C2032      C2047   1.409       .  A
C2032      C2040   1.379       .  A
C2033      C2045   1.417       .  A
C2033      C2041   1.378       .  A
C2034      C2048   1.425       .  A
C2034      C2042   1.382       .  A
C2035      C2043   1.379       .  A
C2035      C2046   1.409       .  A
C2036      C2044   1.382       .  A
C2036      C2047   1.418       .  A
C2037      C2038   1.356       .  A
C2037      H2049   1.062       .  S
C2038      H2050   1.074       .  S
C2039      C2040   1.366       .  A
C2039      H2051   1.075       .  S
C2040      H2052   1.080       .  S
C2041      C2042   1.367       .  A
C2041      H2053   1.081       .  S
C2042      H2054   1.066       .  S
C2043      C2044   1.360       .  A
C2043      H2055   1.081       .  S
C2044      H2056   1.072       .  S
C2045      C2073   1.506       .  S
C2046      C2066   1.484       .  S
C2059      C2060   1.523       .  S
C2059      C2065   1.535       .  S
C2059      C2063   1.548       .  S
C2059      C2308   1.548       .  S
C2060      H2067   1.087       .  S
C2060      C2061   1.363       .  D
C2061      C2185   1.509       .  S
C2061      C2062   1.541       .  S
C2062      C2066   1.540       .  S
C2062      C2064   1.551       .  S
C2062      H2068   1.084       .  S
C2063      H2069   1.079       .  S
C2063      C2064   1.389       .  D
C2065      H2070   1.081       .  S
C2065      C2066   1.359       .  D
C2071      C2072   1.552       .  S
C2071      C2077   1.517       .  S
C2071      C2075   1.548       .  S
C2071      C2248   1.548       .  S
C2072      H2079   1.083       .  S
C2072      C2073   1.369       .  D
C2073      C2074   1.542       .  S
C2074      C2078   1.548       .  S
C2074      C2076   1.562       .  S
C2074      H2080   1.097       .  S
C2075      H2081   1.081       .  S
C2075      C2076   1.386       .  D
C2077      H2082   1.089       .  S
C2077      C2078   1.346       .  D
C2078      C2173   1.495       .  S
C2083      C2084   1.535       .  S
C2083      C2089   1.520       .  S
C2083      C2087   1.548       .  S
C2083      C2269   1.541       .  S
C2084      H2091   1.084       .  S
C2084      C2085   1.365       .  D
C2085      C2135   1.504       .  S
C2085      C2086   1.559       .  S
C2086      C2090   1.556       .  S
C2086      C2088   1.565       .  S
C2086      H2092   1.102       .  S
C2087      H2093   1.081       .  S
C2087      C2088   1.375       .  D
C2089      H2094   1.088       .  S
C2089      C2090   1.360       .  D
C2090      C2161   1.514       .  S
C2095      C2096   1.520       .  S
C2095      C2101   1.537       .  S
C2095      C2099   1.564       .  S
C2095      C2329   1.539       .  S
C2096      H2103   1.088       .  S
C2096      C2097   1.343       .  D
C2097      C2149   1.484       .  S
C2097      C2098   1.559       .  S
C2098      C2102   1.532       .  S
C2098      C2100   1.559       .  S
C2098      H2104   1.091       .  S
C2099      H2105   1.079       .  S
C2099      C2100   1.390       .  D
C2101      H2106   1.085       .  S
C2101      C2102   1.362       .  D
C2102      C2136   1.507       .  S
C2107      C2176   1.483       .  S
C2107      C2108   1.420       .  A
C2108      C2188   1.495       .  S
C2109      C2110   1.402   1_455  A
C2109      H2114   1.084       .  S
C2110      C2152   1.488       .  S
C2110      C2111   1.413       .  A
C2111      C2164   1.479       .  S
C2111      C2112   1.401       .  A
C2112      H2113   1.085       .  S
N2115      H2147   1.040       .  S
N2115      C2120   1.359       .  A
N2115      C2119   1.359       .  A
N2116      C2123   1.359       .  A
N2116      C2124   1.357       .  A
N2117      H2148   1.044       .  S
N2117      C2122   1.366       .  A
N2117      C2121   1.364       .  A
N2118      C2125   1.356       .  A
N2118      C2126   1.352       .  A
C2119      C2127   1.371       .  A
C2119      C2135   1.410       .  A
C2120      C2136   1.417       .  A
C2120      C2128   1.377       .  A
C2121      C2129   1.383       .  A
C2121      C2138   1.430       .  A
C2122      C2137   1.423       .  A
C2122      C2130   1.378       .  A
C2123      C2135   1.408       .  A
C2123      C2131   1.372       .  A
C2124      C2138   1.432       .  A
C2124      C2132   1.395       .  A
C2125      C2133   1.377       .  A
C2125      C2136   1.405       .  A
C2126      C2134   1.386       .  A
C2126      C2137   1.418       .  A
C2127      C2128   1.352       .  A
C2127      H2139   1.066       .  S
C2128      H2140   1.061       .  S
C2129      C2130   1.367       .  A
C2129      H2141   1.078       .  S
C2130      H2142   1.075       .  S
C2131      C2132   1.360       .  A
C2131      H2143   1.083       .  S
C2132      H2144   1.070       .  S
C2133      C2134   1.355       .  A
C2133      H2145   1.081       .  S
C2134      H2146   1.066       .  S
C2149      C2150   1.395       .  A
C2149      C2154   1.422       .  A
C2150      C2151   1.392       .  A
C2150      H2159   1.080       .  S
C2151      C2152   1.412       .  A
C2151      S2155   1.796       .  S
C2152      C2153   1.403       .  A
C2153      C2154   1.400       .  A
C2153      H2160   1.083       .  S
C2154      S2156   1.807       .  S
S2155      H2158   1.406       .  S
S2156      H2157   1.400       .  S
C2161      C2162   1.411       .  A
C2161      C2166   1.424       .  A
C2162      C2163   1.385       .  A
C2162      H2171   1.083       .  S
C2163      C2164   1.406       .  A
C2163      S2167   1.807       .  S
C2164      C2165   1.405       .  A
C2165      C2166   1.411       .  A
C2165      H2172   1.083       .  S
C2166      S2168   1.804       .  S
S2168      H2169   1.407       .  S
C2173      C2174   1.410       .  A
C2173      C2178   1.408       .  A
C2174      C2175   1.393       .  A
C2174      H2183   1.084       .  S
C2175      C2176   1.408       .  A
C2175      S2179   1.803       .  S
C2176      C2177   1.408       .  A
C2177      C2178   1.407       .  A
C2177      H2184   1.083       .  S
C2178      S2180   1.801       .  S
S2179      H2182   1.405       .  S
S2180      H2181   1.407       .  S
C2185      C2186   1.404       .  A
C2185      C2190   1.420       .  A
C2186      C2187   1.389       .  A
C2186      H2195   1.084       .  S
C2187      C2188   1.415       .  A
C2187      S2191   1.801       .  S
C2188      C2189   1.408       .  A
C2189      C2190   1.411       .  A
C2189      H2196   1.082       .  S
C2190      S2192   1.805       .  S
S2191      H2194   1.404       .  S
S2192      H2193   1.407       .  S
C2197      C2198   1.391       .  A
C2197      C2202   1.410       .  A
C2198      C2199   1.402       .  A
C2198      H2207   1.085       .  S
C2199      C2200   1.437       .  A
C2199      S2671   1.820       .  S
C2200      C2201   1.407       .  A
C2201      C2202   1.387       .  A
C2201      H2208   1.082       .  S
C2202      S2204   1.803       .  S
S2203      C2667   1.825   1_554  S
S2203      H2206   2.900       .  S
S2204      H2205   1.396       .  S
C2209      C2210   1.691       .  A
C2209      C2214   1.702       .  A
C2210      C2211   1.679       .  A
C2210      H2219   1.079       .  S
C2211      C2212   1.697       .  A
C2211      S2683   1.796   1_554  S
C2212      C2213   1.690       .  A
C2213      C2214   1.680       .  A
C2213      H2220   1.082       .  S
C2214      S2216   1.784       .  S
S2215      C2679   1.798       .  S
S2215      H2218   1.405       .  S
S2216      H2217   1.394       .  S
C2221      C2222   1.409       .  A
C2221      C2226   1.421       .  A
C2222      C2223   1.401       .  A
C2222      H2231   1.082       .  S
C2223      C2224   1.409       .  A
C2223      S2227   1.798       .  S
C2224      C2225   1.396       .  A
C2225      C2226   1.390       .  A
C2225      H2232   1.085       .  S
C2226      S2228   1.805       .  S
S2227      H2698   1.406       .  S
S2228      H2229   1.408       .  S
H2230      S2695   1.404       .  S
C2233      C2234   1.418       .  A
C2233      C2238   1.422       .  A
C2234      C2235   1.392       .  A
C2234      H2243   1.079       .  S
C2235      C2236   1.406       .  A
C2235      S2239   1.806       .  S
C2236      C2237   1.395       .  A
C2237      C2238   1.396       .  A
C2237      H2244   1.072       .  S
C2238      S2240   1.806       .  S
S2239      H3178   1.407       .  S
S2240      H2241   1.403       .  S
H2242      S3175   1.407       .  S
C2245      C2246   1.404       .  A
C2245      C2250   1.408       .  A
C2246      C2247   1.405       .  A
C2246      H2255   1.082       .  S
C2247      C2248   1.428       .  A
C2247      S2251   1.812       .  S
C2248      C2249   1.419       .  A
C2249      C2250   1.406       .  A
C2249      H2256   1.077       .  S
C2250      S2252   1.801       .  S
S2251      H2254   1.407       .  S
S2252      H2253   1.407       .  S
C2257      C2258   1.402       .  A
C2257      C2262   1.409       .  A
C2258      C2259   1.401       .  A
C2258      H2267   1.083       .  S
C2259      C2260   1.424       .  A
C2259      S2263   1.798       .  S
C2260      C2261   1.422       .  A
C2261      C2262   1.403       .  A
C2261      H2268   1.080       .  S
C2262      S2264   1.802       .  S
S2263      H2266   1.408       .  S
S2264      H2265   1.405       .  S
C2269      C2270   1.420       .  A
C2269      C2274   1.427       .  A
C2270      C2271   1.407       .  A
C2270      H2279   1.078       .  S
C2271      C2272   1.408       .  A
C2271      S2275   1.802       .  S
C2272      C2273   1.400       .  A
C2273      C2274   1.395       .  A
C2273      H2280   1.082       .  S
C2274      S2276   1.811       .  S
S2275      H2278   1.407       .  S
S2276      H2277   1.408       .  S
C2281      C2282   1.395       .  A
C2281      C2286   1.409       .  A
C2282      C2283   1.398       .  A
C2282      H2291   1.082       .  S
C2283      C2284   1.428       .  A
C2283      S2287   1.800       .  S
C2284      C2285   1.423       .  A
C2285      C2286   1.413       .  A
C2285      H2292   1.078       .  S
C2286      S2288   1.804       .  S
S2287      H2290   1.406       .  S
S2288      H2289   1.406       .  S
C2293      C2294   1.423       .  A
C2293      C2298   1.427       .  A
C2294      C2295   1.407       .  A
C2294      H2303   1.078       .  S
C2295      C2296   1.406       .  A
C2295      S2299   1.801       .  S
C2296      C2297   1.399       .  A
C2297      C2298   1.395       .  A
C2297      H2304   1.083       .  S
C2298      S2300   1.801       .  S
S2299      H2302   1.407       .  S
S2300      H2301   1.407       .  S
C2305      C2306   1.404       .  A
C2305      C2310   1.406       .  A
C2306      C2307   1.406       .  A
C2306      H2315   1.082       .  S
C2307      C2308   1.427       .  A
C2307      S2311   1.813       .  S
C2308      C2309   1.418       .  A
C2309      C2310   1.402       .  A
C2309      H2316   1.075       .  S
C2310      S2312   1.804       .  S
S2311      H2314   1.406       .  S
S2312      H2313   1.406       .  S
C2317      C2318   1.425       .  A
C2317      C2322   1.425       .  A
C2318      C2319   1.406       .  A
C2318      H2327   1.079       .  S
C2319      C2320   1.403       .  A
C2319      S2323   1.801       .  S
C2320      C2321   1.401       .  A
C2321      C2322   1.398       .  A
C2321      H2328   1.082       .  S
C2322      S2324   1.805       .  S
S2323      H2326   1.407       .  S
S2324      H2325   1.406       .  S
C2329      C2330   1.408       .  A
C2329      C2334   1.432       .  A
C2330      C2331   1.402       .  A
C2330      H2339   1.078       .  S
C2331      C2332   1.421       .  A
C2331      S2335   1.802       .  S
C2332      C2333   1.397       .  A
C2333      C2334   1.398       .  A
C2333      H2340   1.083       .  S
C2334      S2336   1.812       .  S
S2335      H2338   1.407       .  S
S2336      H2337   1.407       .  S
O2341      C2351   1.278       .  A
O2342      C2352   1.271       .  A
O2342     Ni2349   1.893   1_645  S
O2343      C2353   1.290       .  A
O2343     Ni3285   1.953   1_655  S
O2344      C2354   1.291       .  A
O2345      C2354   1.273       .  A
O2345     Ni3286   1.883   1_545  S
O2346      C2353   1.272       .  A
O2347      C2352   1.291       .  A
O2348      C2351   1.287       .  A
O2348     Ni2350   1.944       .  S
Ni2349     O3279   1.957   1_455  S
Ni2350     O3281   1.880       .  S
C2351      C2773   1.487       .  S
C2352      C2800   1.496       .  S
C2353      C2788   1.487       .  S
C2354      C2764   1.486       .  S
O2355      C2365   1.276       .  A
O2356      C2366   1.275       .  A
O2356     Ni2363   1.891       .  S
O2357      C2367   1.292       .  A
O2358      C2368   1.289       .  A
O2358     Ni3299   1.955   1_655  S
O2359      C2368   1.277       .  A
O2359     Ni3300   1.899   1_655  S
O2360      C2367   1.276       .  A
O2361      C2366   1.288       .  A
O2361     Ni2364   1.947       .  S
O2362      C2365   1.289       .  A
Ni2363     O3294   1.954   1_545  S
Ni2363    Ni2364   2.384       .  S
Ni2364     O3295   1.884   1_545  S
C2365      C2713   1.491       .  S
C2366      C2740   1.483       .  S
C2367      C2725   1.504       .  S
C2368      C2749   1.495       .  S
N2369      H2401   1.042       .  S
N2369      C2373   1.354       .  A
N2370      C2377   1.356       .  A
N2370      C2378   1.351       .  A
N2371      H2402   1.040       .  S
N2371      C2375   1.356       .  A
N2372      C2379   1.349       .  A
N2372      C2380   1.349       .  A
C2373      C2381   1.389       .  A
C2373      C2389   1.419       .  A
C2374      C2390   1.414       .  A
C2374      C2382   1.382       .  A
C2375      C2383   1.386       .  A
C2375      C2392   1.424       .  A
C2376      C2391   1.421       .  A
C2376      C2384   1.381       .  A
C2377      C2389   1.411       .  A
C2377      C2385   1.380       .  A
C2378      C2392   1.424       .  A
C2378      C2386   1.388       .  A
C2379      C2387   1.382       .  A
C2379      C2390   1.404       .  A
C2380      C2388   1.387       .  A
C2380      C2391   1.414       .  A
C2381      H2393   1.081       .  S
C2382      H2394   1.079       .  S
C2383      H2395   1.082       .  S
C2384      H2396   1.078       .  S
C2385      C2386   1.377       .  A
C2385      H2397   1.082       .  S
C2386      H2398   1.082       .  S
C2387      C2388   1.377       .  A
C2387      H2399   1.082       .  S
C2388      H2400   1.082       .  S
C2389      C2441   1.499       .  S
C2390      C2434   1.490       .  S
C2391      C2544   1.530       .  S
C2392      C2532   1.530       .  S
C2403      C2404   1.527       .  S
C2403      C2409   1.526       .  S
C2403      C2407   1.555       .  S
C2403      C2785   1.543       .  S
C2404      H2411   1.085       .  S
C2404      C2405   1.357       .  D
C2405      C2479   1.491       .  S
C2405      C2406   1.543       .  S
C2406      C2410   1.552       .  S
C2406      C2408   1.550       .  S
C2406      H2412   1.090       .  S
C2407      H2413   1.081       .  S
C2407      C2408   1.382       .  D
C2408      C2515   1.536       .  S
C2409      H2414   1.081       .  S
C2409      C2410   1.366       .  D
C2410      C2701   1.518       .  S
C2415      C2416   1.524       .  S
C2415      C2421   1.536       .  S
C2415      C2419   1.560       .  S
C2415      C2752   1.553       .  S
C2416      H2423   1.085       .  S
C2416      C2417   1.355       .  D
C2417      C2689   1.493       .  S
C2417      C2418   1.545       .  S
C2418      C2422   1.550       .  S
C2418      C2420   1.546       .  S
C2418      H2424   1.103       .  S
C2419      H2425   1.082       .  S
C2419      C2420   1.389       .  D
C2420      C2516   1.539       .  S
C2421      H2426   1.083       .  S
C2421      C2422   1.365       .  D
C2422      C2480   1.501       .  S
C2427      C2428   1.521       .  S
C2427      C2433   1.538       .  S
C2427      C2431   1.563       .  S
C2427      C2728   1.552       .  S
C2428      H2435   1.090       .  S
C2428      C2429   1.341       .  D
C2429      C2677   1.456       .  S
C2429      C2430   1.531       .  S
C2430      C2434   1.538       .  S
C2430      C2432   1.563       .  S
C2430      H2436   1.090       .  S
C2431      H2437   1.079       .  S
C2431      C2432   1.396       .  D
C2432      C2606   1.553       .  S
C2433      H2438   1.086       .  S
C2433      C2434   1.361       .  D
C2439      C2440   1.535       .  S
C2439      C2445   1.524       .  S
C2439      C2443   1.558       .  S
C2439      C2761   1.548       .  S
C2440      H2447   1.084       .  S
C2440      C2441   1.360       .  D
C2441      C2442   1.548       .  S
C2442      C2446   1.535       .  S
C2442      C2444   1.567       .  S
C2442      H2448   1.103       .  S
C2443      H2449   1.081       .  S
C2443      C2444   1.392       .  D
C2444      C2605   1.551       .  S
C2445      H2450   1.089       .  S
C2445      C2446   1.349       .  D
C2446      C2665   1.472       .  S
C2451      C2692   1.477       .  S
C2451      C3392   1.391       .  A
C2452      C2704   1.481       .  S
C2452      C3389   1.401       .  A
C2453      C3388   1.398       .  A
C2453      C2454   1.408   1_565  A
C2453      H2458   1.082   1_565  S
C2454      C2668   1.510       .  S
C2455      C2680   1.434       .  S
C2455      C2456   1.395   1_545  A
C2456      C3387   1.387       .  A
C2456      H2457   1.086       .  S
N2459      H2491   1.035       .  S
N2459      C2463   1.353       .  A
N2460      C2467   1.358       .  A
N2460      C2468   1.361       .  A
N2461      H2492   1.044       .  S
N2461      C2465   1.363       .  A
N2462      C2469   1.355       .  A
N2462      C2470   1.350       .  A
C2463      C2471   1.383       .  A
C2463      C2479   1.414       .  A
C2464      C2480   1.414       .  A
C2464      C2472   1.382       .  A
C2465      C2473   1.388       .  A
C2465      C2482   1.437       .  A
C2466      C2481   1.431       .  A
C2466      C2474   1.386       .  A
C2467      C2479   1.412       .  A
C2467      C2475   1.373       .  A
C2468      C2482   1.437       .  A
C2468      C2476   1.388       .  A
C2469      C2477   1.382       .  A
C2469      C2480   1.409       .  A
C2470      C2478   1.376       .  A
C2470      C2481   1.412       .  A
C2471      H2483   1.072       .  S
C2472      H2484   1.075       .  S
C2473      H2485   1.082       .  S
C2474      H2486   1.082       .  S
C2475      C2476   1.350       .  A
C2475      H2487   1.082       .  S
C2476      H2488   1.053       .  S
C2477      C2478   1.366       .  A
C2477      H2489   1.080       .  S
C2478      H2490   1.066       .  S
C2481      C2556   1.528       .  S
C2482      C2568   1.545       .  S
N2493      H2525   1.040       .  S
N2493      C2498   1.352       .  A
N2493      C2497   1.355       .  A
N2494      C2501   1.364       .  A
N2494      C2502   1.356       .  A
N2495      H2526   1.045       .  S
N2495      C2500   1.361       .  A
N2495      C2499   1.359       .  A
N2496      C2503   1.360       .  A
N2496      C2504   1.356       .  A
C2497      C2505   1.378       .  A
C2497      C2513   1.406       .  A
C2498      C2514   1.405       .  A
C2498      C2506   1.378       .  A
C2499      C2507   1.378       .  A
C2499      C2516   1.413       .  A
C2500      C2515   1.410       .  A
C2500      C2508   1.380       .  A
C2501      C2513   1.418       .  A
C2501      C2509   1.379       .  A
C2502      C2516   1.425       .  A
C2502      C2510   1.381       .  A
C2503      C2511   1.380       .  A
C2503      C2514   1.411       .  A
C2504      C2512   1.381       .  A
C2504      C2515   1.417       .  A
C2505      C2506   1.356       .  A
C2505      H2517   1.066       .  S
C2506      H2518   1.071       .  S
C2507      C2508   1.366       .  A
C2507      H2519   1.077       .  S
C2508      H2520   1.081       .  S
C2509      C2510   1.365       .  A
C2509      H2521   1.081       .  S
C2510      H2522   1.066       .  S
C2511      C2512   1.363       .  A
C2511      H2523   1.081       .  S
C2512      H2524   1.073       .  S
C2513      C2541   1.506       .  S
C2514      C2534   1.491       .  S
C2527      C2528   1.520       .  S
C2527      C2533   1.535       .  S
C2527      C2531   1.550       .  S
C2527      C2776   1.550       .  S
C2528      H2535   1.088       .  S
C2528      C2529   1.361       .  D
C2529      C2653   1.506       .  S
C2529      C2530   1.541       .  S
C2530      C2534   1.550       .  S
C2530      C2532   1.554       .  S
C2530      H2536   1.088       .  S
C2531      H2537   1.081       .  S
C2531      C2532   1.387       .  D
C2533      H2538   1.081       .  S
C2533      C2534   1.363       .  D
C2539      C2540   1.551       .  S
C2539      C2545   1.516       .  S
C2539      C2543   1.549       .  S
C2539      C2716   1.548       .  S
C2540      H2547   1.083       .  S
C2540      C2541   1.369       .  D
C2541      C2542   1.542       .  S
C2542      C2546   1.551       .  S
C2542      C2544   1.558       .  S
C2542      H2548   1.097       .  S
C2543      H2549   1.080       .  S
C2543      C2544   1.387       .  D
C2545      H2550   1.088       .  S
C2545      C2546   1.348       .  D
C2546      C2641   1.498       .  S
C2551      C2552   1.537       .  S
C2551      C2557   1.522       .  S
C2551      C2555   1.543       .  S
C2551      C2737   1.542       .  S
C2552      H2559   1.083       .  S
C2552      C2553   1.369       .  D
C2553      C2603   1.511       .  S
C2553      C2554   1.563       .  S
C2554      C2558   1.561       .  S
C2554      C2556   1.567       .  S
C2554      H2560   1.102       .  S
C2555      H2561   1.083       .  S
C2555      C2556   1.370       .  D
C2557      H2562   1.087       .  S
C2557      C2558   1.362       .  D
C2558      C2629   1.523       .  S
C2563      C2564   1.520       .  S
C2563      C2569   1.541       .  S
C2563      C2567   1.563       .  S
C2563      C2797   1.541       .  S
C2564      H2571   1.089       .  S
C2564      C2565   1.344       .  D
C2565      C2617   1.487       .  S
C2565      C2566   1.560       .  S
C2566      C2570   1.532       .  S
C2566      C2568   1.563       .  S
C2566      H2572   1.094       .  S
C2567      H2573   1.080       .  S
C2567      C2568   1.389       .  D
C2569      H2574   1.085       .  S
C2569      C2570   1.364       .  D
C2570      C2604   1.512       .  S
C2575      C2644   1.482       .  S
C2575      C2576   1.416       .  A
C2576      C2656   1.485       .  S
C2577      C2578   1.404   1_455  A
C2577      H2582   1.084       .  S
C2578      C2620   1.482       .  S
C2578      C2579   1.415       .  A
C2579      C2632   1.485       .  S
C2579      C2580   1.397   1_655  A
C2580      H2581   1.085       .  S
N2583      H2615   1.041       .  S
N2583      C2588   1.360       .  A
N2583      C2587   1.359       .  A
N2584      C2591   1.362       .  A
N2584      C2592   1.361       .  A
N2585      H2616   1.044       .  S
N2585      C2590   1.368       .  A
N2585      C2589   1.368       .  A
N2586      C2593   1.359       .  A
N2586      C2594   1.356       .  A
C2587      C2595   1.375       .  A
C2587      C2603   1.414       .  A
C2588      C2604   1.420       .  A
C2588      C2596   1.380       .  A
C2589      C2597   1.384       .  A
C2589      C2606   1.433       .  A
C2590      C2605   1.430       .  A
C2590      C2598   1.378       .  A
C2591      C2603   1.416       .  A
C2591      C2599   1.374       .  A
C2592      C2606   1.438       .  A
C2592      C2600   1.394       .  A
C2593      C2601   1.378       .  A
C2593      C2604   1.410       .  A
C2594      C2602   1.388       .  A
C2594      C2605   1.425       .  A
C2595      C2596   1.359       .  A
C2595      H2607   1.068       .  S
C2596      H2608   1.067       .  S
C2597      C2598   1.369       .  A
C2597      H2609   1.081       .  S
C2598      H2610   1.073       .  S
C2599      C2600   1.363       .  A
C2599      H2611   1.083       .  S
C2600      H2612   1.070       .  S
C2601      C2602   1.360       .  A
C2601      H2613   1.081       .  S
C2602      H2614   1.070       .  S
C2617      C2618   1.399       .  A
C2617      C2622   1.420       .  A
C2618      C2619   1.392       .  A
C2618      H2627   1.079       .  S
C2619      C2620   1.411       .  A
C2619      S2623   1.800       .  S
C2620      C2621   1.400       .  A
C2621      C2622   1.395       .  A
C2621      H2628   1.083       .  S
C2622      S2624   1.804       .  S
S2623      H2626   1.407       .  S
S2624      H2625   1.400       .  S
C2629      C2630   1.414       .  A
C2629      C2634   1.426       .  A
C2630      C2631   1.389       .  A
C2630      H2639   1.082       .  S
C2631      C2632   1.407       .  A
C2631      S2635   1.807       .  S
C2632      C2633   1.404       .  A
C2633      C2634   1.412       .  A
C2633      H2640   1.083       .  S
C2634      S2636   1.805       .  S
S2636      H2637   1.407       .  S
C2641      C2642   1.411       .  A
C2641      C2646   1.410       .  A
C2642      C2643   1.394       .  A
C2642      H2651   1.084       .  S
C2643      C2644   1.406       .  A
C2643      S2647   1.802       .  S
C2644      C2645   1.407       .  A
C2645      C2646   1.408       .  A
C2645      H2652   1.083       .  S
C2646      S2648   1.801       .  S
S2647      H2650   1.407       .  S
S2648      H2649   1.407       .  S
C2653      C2654   1.405       .  A
C2653      C2658   1.419       .  A
C2654      C2655   1.386       .  A
C2654      H2663   1.084       .  S
C2655      C2656   1.411       .  A
C2655      S2659   1.802       .  S
C2656      C2657   1.407       .  A
C2657      C2658   1.411       .  A
C2657      H2664   1.082       .  S
C2658      S2660   1.805       .  S
S2659      H2662   1.403       .  S
S2660      H2661   1.407       .  S
C2665      C2666   1.391       .  A
C2665      C2670   1.408       .  A
C2666      C2667   1.400       .  A
C2666      H2675   1.085       .  S
C2667      C2668   1.438       .  A
C2668      C2669   1.408       .  A
C2669      C2670   1.386       .  A
C2669      H2676   1.082       .  S
C2670      S2672   1.802       .  S
S2671      H2674   2.905       .  S
S2672      H2673   1.401       .  S
C2677      C2678   1.691       .  A
C2677      C2682   1.697       .  A
C2678      C2679   1.674       .  A
C2678      H2687   1.077       .  S
C2679      C2680   1.694       .  A
C2680      C2681   1.690       .  A
C2681      C2682   1.678       .  A
C2681      H2688   1.082       .  S
C2682      S2684   1.786       .  S
S2683      H2686   1.406       .  S
S2684      H2685   1.401       .  S
C2689      C2690   1.406       .  A
C2689      C2694   1.423       .  A
C2690      C2691   1.397       .  A
C2690      H2699   1.081       .  S
C2691      C2692   1.407       .  A
C2691      S2695   1.800       .  S
C2692      C2693   1.397       .  A
C2693      C2694   1.392       .  A
C2693      H2700   1.085       .  S
C2694      S2696   1.806       .  S
S2696      H2697   1.408       .  S
C2701      C2702   1.421       .  A
C2701      C2706   1.425       .  A
C2702      C2703   1.393       .  A
C2702      H2711   1.076       .  S
C2703      C2704   1.402       .  A
C2703      S2707   1.806       .  S
C2704      C2705   1.395       .  A
C2705      C2706   1.398       .  A
C2705      H2712   1.075       .  S
C2706      S2708   1.807       .  S
S2707      H3646   1.407       .  S
S2708      H2709   1.404       .  S
H2710      S3643   1.407       .  S
C2713      C2714   1.403       .  A
C2713      C2718   1.408       .  A
C2714      C2715   1.403       .  A
C2714      H2723   1.082       .  S
C2715      C2716   1.428       .  A
C2715      S2719   1.812       .  S
C2716      C2717   1.421       .  A
C2717      C2718   1.407       .  A
C2717      H2724   1.078       .  S
C2718      S2720   1.804       .  S
S2719      H2722   1.407       .  S
S2720      H2721   1.407       .  S
C2725      C2726   1.408       .  A
C2725      C2730   1.410       .  A
C2726      C2727   1.407       .  A
C2726      H2735   1.082       .  S
C2727      C2728   1.422       .  A
C2727      S2731   1.800       .  S
C2728      C2729   1.426       .  A
C2729      C2730   1.407       .  A
C2729      H2736   1.081       .  S
C2730      S2732   1.801       .  S
S2731      H2734   1.407       .  S
S2732      H2733   1.406       .  S
C2737      C2738   1.418       .  A
C2737      C2742   1.429       .  A
C2738      C2739   1.409       .  A
C2738      H2747   1.078       .  S
C2739      C2740   1.408       .  A
C2739      S2743   1.802       .  S
C2740      C2741   1.398       .  A
C2741      C2742   1.395       .  A
C2741      H2748   1.081       .  S
C2742      S2744   1.816       .  S
S2743      H2746   1.407       .  S
S2744      H2745   1.407       .  S
C2749      C2750   1.398       .  A
C2749      C2754   1.411       .  A
C2750      C2751   1.399       .  A
C2750      H2759   1.082       .  S
C2751      C2752   1.427       .  A
C2751      S2755   1.802       .  S
C2752      C2753   1.423       .  A
C2753      C2754   1.412       .  A
C2753      H2760   1.079       .  S
C2754      S2756   1.802       .  S
S2755      H2758   1.406       .  S
S2756      H2757   1.405       .  S
C2761      C2762   1.425       .  A
C2761      C2766   1.424       .  A
C2762      C2763   1.408       .  A
C2762      H2771   1.078       .  S
C2763      C2764   1.407       .  A
C2763      S2767   1.804       .  S
C2764      C2765   1.399       .  A
C2765      C2766   1.397       .  A
C2765      H2772   1.083       .  S
C2766      S2768   1.799       .  S
S2767      H2770   1.406       .  S
S2768      H2769   1.407       .  S
C2773      C2774   1.401       .  A
C2773      C2778   1.410       .  A
C2774      C2775   1.402       .  A
C2774      H2783   1.083       .  S
C2775      C2776   1.427       .  A
C2775      S2779   1.813       .  S
C2776      C2777   1.418       .  A
C2777      C2778   1.409       .  A
C2777      H2784   1.076       .  S
C2778      S2780   1.805       .  S
S2779      H2782   1.407       .  S
S2780      H2781   1.406       .  S
C2785      C2786   1.425       .  A
C2785      C2790   1.422       .  A
C2786      C2787   1.405       .  A
C2786      H2795   1.079       .  S
C2787      C2788   1.405       .  A
C2787      S2791   1.802       .  S
C2788      C2789   1.403       .  A
C2789      C2790   1.396       .  A
C2789      H2796   1.083       .  S
C2790      S2792   1.802       .  S
S2791      H2794   1.407       .  S
S2792      H2793   1.407       .  S
C2797      C2798   1.406       .  A
C2797      C2802   1.433       .  A
C2798      C2799   1.403       .  A
C2798      H2807   1.078       .  S
C2799      C2800   1.424       .  A
C2799      S2803   1.803       .  S
C2800      C2801   1.397       .  A
C2801      C2802   1.401       .  A
C2801      H2808   1.082       .  S
C2802      S2804   1.812       .  S
S2803      H2806   1.408       .  S
S2804      H2805   1.406       .  S
O2809      C2819   1.278       .  A
O2810      C2820   1.275       .  A
O2810     Ni2817   1.908   1_655  S
O2811      C2821   1.290       .  A
O2812      C2822   1.290       .  A
O2813      C2822   1.273       .  A
O2814      C2821   1.272       .  A
O2815      C2820   1.291       .  A
O2816      C2819   1.288       .  A
O2816     Ni2818   1.944       .  S
C2819      C3241   1.493       .  S
C2820      C3268   1.505       .  S
C2821      C3256   1.486       .  S
C2822      C3232   1.483       .  S
O2823      C2833   1.276       .  A
O2824      C2834   1.275       .  A
O2824     Ni2831   1.891       .  S
O2825      C2835   1.291       .  A
O2826      C2836   1.288       .  A
O2827      C2836   1.277       .  A
O2828      C2835   1.275       .  A
O2829      C2834   1.289       .  A
O2829     Ni2832   1.953       .  S
O2830      C2833   1.288       .  A
Ni2831    Ni2832   2.383       .  S
C2833      C3181   1.486       .  S
C2834      C3208   1.488       .  S
C2835      C3193   1.498       .  S
C2836      C3217   1.495       .  S
N2837      H2869   1.042       .  S
N2837      C3310   1.351       .  A
N2837      C2841   1.355       .  A
N2838      C2845   1.355       .  A
N2838      C2846   1.350       .  A
N2839      H2870   1.040       .  S
N2839      C3312   1.359       .  A
N2839      C2843   1.357       .  A
N2840      C2847   1.351       .  A
N2840      C2848   1.350       .  A
C2841      C2849   1.389       .  A
C2841      C2857   1.418       .  A
C2842      N3305   1.351   1_554  A
C2842      C2858   1.411       .  A
C2842      C2850   1.384       .  A
C2843      C2851   1.384       .  A
C2843      C2860   1.420       .  A
C2844      N3307   1.358   1_554  A
C2844      C2859   1.421       .  A
C2844      C2852   1.381       .  A
C2845      C2857   1.411       .  A
C2845      C2853   1.381       .  A
C2846      C2860   1.424       .  A
C2846      C2854   1.389       .  A
C2847      C2855   1.382       .  A
C2847      C2858   1.405       .  A
C2848      C2856   1.388       .  A
C2848      C2859   1.417       .  A
C2849      C3318   1.377       .  A
C2849      H2861   1.081       .  S
C2850      C3317   1.376   1_554  A
C2850      H2862   1.080       .  S
C2851      C3320   1.373       .  A
C2851      H2863   1.082       .  S
C2852      C3319   1.375   1_554  A
C2852      H2864   1.078       .  S
C2853      C2854   1.378       .  A
C2853      H2865   1.082       .  S
C2854      H2866   1.082       .  S
C2855      C2856   1.376       .  A
C2855      H2867   1.082       .  S
C2856      H2868   1.082       .  S
C2857      C2909   1.499       .  S
C2858      C2902   1.485       .  S
C2859      C3012   1.532       .  S
C2860      C3000   1.529       .  S
C2871      C2872   1.533       .  S
C2871      C2877   1.520       .  S
C2871      C2875   1.555       .  S
C2871      C3253   1.545       .  S
C2872      H2879   1.084       .  S
C2872      C2873   1.359       .  D
C2873      C2947   1.497       .  S
C2873      C2874   1.544       .  S
C2874      C2878   1.546       .  S
C2874      C2876   1.547       .  S
C2874      H2880   1.092       .  S
C2875      H2881   1.082       .  S
C2875      C2876   1.385       .  D
C2876      C2983   1.532       .  S
C2877      H2882   1.084       .  S
C2877      C2878   1.361       .  D
C2878      C3169   1.504       .  S
C2883      C2884   1.521       .  S
C2883      C2889   1.536       .  S
C2883      C2887   1.563       .  S
C2883      C3220   1.554       .  S
C2884      H2891   1.085       .  S
C2884      C2885   1.354       .  D
C2885      C3157   1.488       .  S
C2885      C2886   1.543       .  S
C2886      C2890   1.551       .  S
C2886      C2888   1.544       .  S
C2886      H2892   1.103       .  S
C2887      H2893   1.081       .  S
C2887      C2888   1.389       .  D
C2888      C2984   1.538       .  S
C2889      H2894   1.084       .  S
C2889      C2890   1.365       .  D
C2890      C2948   1.505       .  S
C2895      C2896   1.530       .  S
C2895      C2901   1.533       .  S
C2895      C2899   1.557       .  S
C2895      C3196   1.549       .  S
C2896      H2903   1.089       .  S
C2896      C2897   1.348       .  D
C2897      C3145   1.472       .  S
C2897      C2898   1.535       .  S
C2898      C2902   1.539       .  S
C2898      C2900   1.560       .  S
C2898      H2904   1.092       .  S
C2899      H2905   1.078       .  S
C2899      C2900   1.393       .  D
C2900      C3074   1.546       .  S
C2901      H2906   1.086       .  S
C2901      C2902   1.357       .  D
C2907      C2908   1.539       .  S
C2907      C2913   1.524       .  S
C2907      C2911   1.559       .  S
C2907      C3229   1.549       .  S
C2908      H2915   1.083       .  S
C2908      C2909   1.364       .  D
C2909      C2910   1.544       .  S
C2910      C2914   1.538       .  S
C2910      C2912   1.566       .  S
C2910      H2916   1.104       .  S
C2911      H2917   1.081       .  S
C2911      C2912   1.391       .  D
C2912      C3073   1.552       .  S
C2913      H2918   1.089       .  S
C2913      C2914   1.348       .  D
C2914      C3133   1.476       .  S
C2919      C3160   1.470       .  S
C2919      C3388   1.409   1_554  A
C2920      C3172   1.476       .  S
C2920      C3387   1.409       .  A
C2921      C2922   1.407       .  A
C2921      H2926   1.081       .  S
C2922      C3136   1.512       .  S
C2922      C3391   1.414       .  A
C2923      C3148   1.443       .  S
C2923      C3390   1.412   1_554  A
C2923      C2924   1.397       .  A
C2924      H2925   1.085       .  S
N2927      H2959   1.037       .  S
N2927      C3400   1.359       .  A
N2927      C2931   1.354       .  A
N2928      C2935   1.361       .  A
N2928      C2936   1.365       .  A
N2929      H2960   1.044       .  S
N2929      C3402   1.360       .  A
N2929      C2933   1.360       .  A
N2930      C2937   1.357       .  A
N2930      C2938   1.352       .  A
C2931      C2939   1.385       .  A
C2931      C2947   1.414       .  A
C2932      N3395   1.362   1_554  A
C2932      C2948   1.418       .  A
C2932      C2940   1.381       .  A
C2933      C2941   1.388       .  A
C2933      C2950   1.432       .  A
C2934      N3397   1.363   1_554  A
C2934      C2949   1.433       .  A
C2934      C2942   1.386       .  A
C2935      C2947   1.416       .  A
C2935      C2943   1.371       .  A
C2936      C2950   1.447       .  A
C2936      C2944   1.391       .  A
C2937      C2945   1.382       .  A
C2937      C2948   1.411       .  A
C2938      C2946   1.376       .  A
C2938      C2949   1.414       .  A
C2939      C3408   1.354       .  A
C2939      H2951   1.073       .  S
C2940      C3407   1.356   1_554  A
C2940      H2952   1.073       .  S
C2941      C3410   1.383       .  A
C2941      H2953   1.082       .  S
C2942      C3409   1.386   1_554  A
C2942      H2954   1.082       .  S
C2943      C2944   1.354       .  A
C2943      H2955   1.083       .  S
C2944      H2956   1.057       .  S
C2945      C2946   1.365       .  A
C2945      H2957   1.080       .  S
C2946      H2958   1.066       .  S
C2949      C3024   1.533       .  S
C2950      C3036   1.550       .  S
N2961      H2993   1.041       .  S
N2961      C2966   1.351       .  A
N2961      C2965   1.353       .  A
N2962      C2969   1.364       .  A
N2962      C2970   1.357       .  A
N2963      H2994   1.045       .  S
N2963      C2968   1.358       .  A
N2963      C2967   1.356       .  A
N2964      C2971   1.359       .  A
N2964      C2972   1.355       .  A
C2965      C2973   1.380       .  A
C2965      C2981   1.407       .  A
C2966      C2982   1.404       .  A
C2966      C2974   1.379       .  A
C2967      C2975   1.380       .  A
C2967      C2984   1.408       .  A
C2968      C2983   1.406       .  A
C2968      C2976   1.380       .  A
C2969      C2981   1.418       .  A
C2969      C2977   1.378       .  A
C2970      C2984   1.426       .  A
C2970      C2978   1.380       .  A
C2971      C2979   1.381       .  A
C2971      C2982   1.410       .  A
C2972      C2980   1.381       .  A
C2972      C2983   1.417       .  A
C2973      C2974   1.361       .  A
C2973      H2985   1.067       .  S
C2974      H2986   1.073       .  S
C2975      C2976   1.367       .  A
C2975      H2987   1.079       .  S
C2976      H2988   1.079       .  S
C2977      C2978   1.365       .  A
C2977      H2989   1.081       .  S
C2978      H2990   1.064       .  S
C2979      C2980   1.362       .  A
C2979      H2991   1.081       .  S
C2980      H2992   1.071       .  S
C2981      C3009   1.506       .  S
C2982      C3002   1.488       .  S
C2995      C2996   1.522       .  S
C2995      C3001   1.534       .  S
C2995      C2999   1.552       .  S
C2995      C3244   1.553       .  S
C2996      H3003   1.087       .  S
C2996      C2997   1.365       .  D
C2997      C3121   1.502       .  S
C2997      C2998   1.537       .  S
C2998      C3002   1.543       .  S
C2998      C3000   1.550       .  S
C2998      H3004   1.085       .  S
C2999      H3005   1.079       .  S
C2999      C3000   1.391       .  D
C3001      H3006   1.082       .  S
C3001      C3002   1.359       .  D
C3007      C3008   1.552       .  S
C3007      C3013   1.516       .  S
C3007      C3011   1.549       .  S
C3007      C3184   1.546       .  S
C3008      H3015   1.084       .  S
C3008      C3009   1.370       .  D
C3009      C3010   1.539       .  S
C3010      C3014   1.545       .  S
C3010      C3012   1.557       .  S
C3010      H3016   1.094       .  S
C3011      H3017   1.079       .  S
C3011      C3012   1.388       .  D
C3013      H3018   1.089       .  S
C3013      C3014   1.346       .  D
C3014      C3109   1.490       .  S
C3019      C3020   1.536       .  S
C3019      C3025   1.521       .  S
C3019      C3023   1.549       .  S
C3019      C3205   1.546       .  S
C3020      H3027   1.083       .  S
C3020      C3021   1.367       .  D
C3021      C3071   1.507       .  S
C3021      C3022   1.559       .  S
C3022      C3026   1.556       .  S
C3022      C3024   1.567       .  S
C3022      H3028   1.103       .  S
C3023      H3029   1.082       .  S
C3023      C3024   1.374       .  D
C3025      H3030   1.088       .  S
C3025      C3026   1.361       .  D
C3026      C3097   1.515       .  S
C3031      C3032   1.518       .  S
C3031      C3037   1.544       .  S
C3031      C3035   1.567       .  S
C3031      C3265   1.547       .  S
C3032      H3039   1.089       .  S
C3032      C3033   1.340       .  D
C3033      C3085   1.480       .  S
C3033      C3034   1.557       .  S
C3034      C3038   1.532       .  S
C3034      C3036   1.555       .  S
C3034      H3040   1.091       .  S
C3035      H3041   1.081       .  S
C3035      C3036   1.396       .  D
C3037      H3042   1.085       .  S
C3037      C3038   1.365       .  D
C3038      C3072   1.516       .  S
C3043      C3112   1.481       .  S
C3043      C3044   1.420       .  A
C3044      C3124   1.492       .  S
C3045      C3046   1.405       .  A
C3045      H3050   1.084   1_655  S
C3046      C3088   1.480       .  S
C3046      C3047   1.414       .  A
C3047      C3100   1.485       .  S
C3047      C3048   1.397       .  A
C3048      H3049   1.085       .  S
N3051      H3083   1.041       .  S
N3051      C3056   1.360       .  A
N3051      C3055   1.359       .  A
N3052      C3059   1.361       .  A
N3052      C3060   1.358       .  A
N3053      H3084   1.044       .  S
N3053      C3058   1.367       .  A
N3053      C3057   1.365       .  A
N3054      C3061   1.361       .  A
N3054      C3062   1.357       .  A
C3055      C3063   1.372       .  A
C3055      C3071   1.410       .  A
C3056      C3072   1.420       .  A
C3056      C3064   1.380       .  A
C3057      C3065   1.384       .  A
C3057      C3074   1.431       .  A
C3058      C3073   1.428       .  A
C3058      C3066   1.379       .  A
C3059      C3071   1.410       .  A
C3059      C3067   1.372       .  A
C3060      C3074   1.434       .  A
C3060      C3068   1.394       .  A
C3061      C3069   1.375       .  A
C3061      C3072   1.411       .  A
C3062      C3070   1.386       .  A
C3062      C3073   1.426       .  A
C3063      C3064   1.354       .  A
C3063      H3075   1.067       .  S
C3064      H3076   1.062       .  S
C3065      C3066   1.368       .  A
C3065      H3077   1.081       .  S
C3066      H3078   1.073       .  S
C3067      C3068   1.360       .  A
C3067      H3079   1.083       .  S
C3068      H3080   1.071       .  S
C3069      C3070   1.357       .  A
C3069      H3081   1.081       .  S
C3070      H3082   1.065       .  S
C3085      C3086   1.394       .  A
C3085      C3090   1.420       .  A
C3086      C3087   1.389       .  A
C3086      H3095   1.080       .  S
C3087      C3088   1.411       .  A
C3087      S3091   1.798       .  S
C3088      C3089   1.402       .  A
C3089      C3090   1.396       .  A
C3089      H3096   1.083       .  S
C3090      S3092   1.804       .  S
S3091      H3094   1.407       .  S
S3092      H3093   1.401       .  S
C3097      C3098   1.411       .  A
C3097      C3102   1.422       .  A
C3098      C3099   1.388       .  A
C3098      H3107   1.084       .  S
C3099      C3100   1.408       .  A
C3099      S3103   1.805       .  S
C3100      C3101   1.405       .  A
C3101      C3102   1.411       .  A
C3101      H3108   1.083       .  S
C3102      S3104   1.804       .  S
S3104      H3105   1.407       .  S
C3109      C3110   1.409       .  A
C3109      C3114   1.408       .  A
C3110      C3111   1.394       .  A
C3110      H3119   1.084       .  S
C3111      C3112   1.408       .  A
C3111      S3115   1.803       .  S
C3112      C3113   1.407       .  A
C3113      C3114   1.405       .  A
C3113      H3120   1.083       .  S
C3114      S3116   1.802       .  S
S3115      H3118   1.406       .  S
S3116      H3117   1.406       .  S
C3121      C3122   1.401       .  A
C3121      C3126   1.415       .  A
C3122      C3123   1.388       .  A
C3122      H3131   1.085       .  S
C3123      C3124   1.417       .  A
C3123      S3127   1.797       .  S
C3124      C3125   1.407       .  A
C3125      C3126   1.410       .  A
C3125      H3132   1.082       .  S
C3126      S3128   1.805       .  S
S3127      H3130   1.404       .  S
S3128      H3129   1.406       .  S
C3133      C3134   1.395       .  A
C3133      C3138   1.410       .  A
C3134      C3135   1.404       .  A
C3134      H3143   1.084       .  S
C3135      C3136   1.437       .  A
C3135      S3607   1.827       .  S
C3136      C3137   1.407       .  A
C3137      C3138   1.385       .  A
C3137      H3144   1.082       .  S
C3138      S3140   1.804       .  S
S3139      C3603   1.827   1_554  S
S3139      H3142   2.896       .  S
S3140      H3141   1.397       .  S
C3145      C3146   1.690       .  A
C3145      C3150   1.706       .  A
C3146      C3147   1.678       .  A
C3146      H3155   1.079       .  S
C3147      C3148   1.699       .  A
C3147      S3619   1.797   1_554  S
C3148      C3149   1.692       .  A
C3149      C3150   1.684       .  A
C3149      H3156   1.082       .  S
C3150      S3152   1.788       .  S
S3151      C3615   1.797       .  S
S3151      H3154   1.405       .  S
S3152      H3153   1.396       .  S
C3157      C3158   1.407       .  A
C3157      C3162   1.422       .  A
C3158      C3159   1.395       .  A
C3158      H3167   1.081       .  S
C3159      C3160   1.405       .  A
C3159      S3163   1.798       .  S
C3160      C3161   1.397       .  A
C3161      C3162   1.390       .  A
C3161      H3168   1.085       .  S
C3162      S3164   1.808       .  S
S3163      H3634   1.404       .  S
S3164      H3165   1.408       .  S
H3166      S3631   1.404       .  S
C3169      C3170   1.418       .  A
C3169      C3174   1.421       .  A
C3170      C3171   1.387       .  A
C3170      H3179   1.079       .  S
C3171      C3172   1.402       .  A
C3171      S3175   1.806       .  S
C3172      C3173   1.397       .  A
C3173      C3174   1.396       .  A
C3173      H3180   1.073       .  S
C3174      S3176   1.808       .  S
S3176      H3177   1.403       .  S
C3181      C3182   1.401       .  A
C3181      C3186   1.407       .  A
C3182      C3183   1.400       .  A
C3182      H3191   1.083       .  S
C3183      C3184   1.427       .  A
C3183      S3187   1.808       .  S
C3184      C3185   1.421       .  A
C3185      C3186   1.406       .  A
C3185      H3192   1.078       .  S
C3186      S3188   1.803       .  S
S3187      H3190   1.408       .  S
S3188      H3189   1.407       .  S
C3193      C3194   1.406       .  A
C3193      C3198   1.408       .  A
C3194      C3195   1.406       .  A
C3194      H3203   1.083       .  S
C3195      C3196   1.423       .  A
C3195      S3199   1.801       .  S
C3196      C3197   1.424       .  A
C3197      C3198   1.405       .  A
C3197      H3204   1.081       .  S
C3198      S3200   1.801       .  S
S3199      H3202   1.407       .  S
S3200      H3201   1.405       .  S
C3205      C3206   1.421       .  A
C3205      C3210   1.427       .  A
C3206      C3207   1.411       .  A
C3206      H3215   1.078       .  S
C3207      C3208   1.409       .  A
C3207      S3211   1.803       .  S
C3208      C3209   1.400       .  A
C3209      C3210   1.396       .  A
C3209      H3216   1.082       .  S
C3210      S3212   1.815       .  S
S3211      H3214   1.406       .  S
S3212      H3213   1.407       .  S
C3217      C3218   1.401       .  A
C3217      C3222   1.409       .  A
C3218      C3219   1.401       .  A
C3218      H3227   1.082       .  S
C3219      C3220   1.427       .  A
C3219      S3223   1.804       .  S
C3220      C3221   1.424       .  A
C3221      C3222   1.411       .  A
C3221      H3228   1.080       .  S
C3222      S3224   1.803       .  S
S3223      H3226   1.407       .  S
S3224      H3225   1.407       .  S
C3229      C3230   1.424       .  A
C3229      C3234   1.425       .  A
C3230      C3231   1.411       .  A
C3230      H3239   1.078       .  S
C3231      C3232   1.407       .  A
C3231      S3235   1.805       .  S
C3232      C3233   1.397       .  A
C3233      C3234   1.394       .  A
C3233      H3240   1.084       .  S
C3234      S3236   1.798       .  S
S3235      H3238   1.406       .  S
S3236      H3237   1.407       .  S
C3241      C3242   1.405       .  A
C3241      C3246   1.408       .  A
C3242      C3243   1.407       .  A
C3242      H3251   1.082       .  S
C3243      C3244   1.426       .  A
C3243      S3247   1.812       .  S
C3244      C3245   1.420       .  A
C3245      C3246   1.405       .  A
C3245      H3252   1.075       .  S
C3246      S3248   1.804       .  S
S3247      H3250   1.407       .  S
S3248      H3249   1.407       .  S
C3253      C3254   1.424       .  A
C3253      C3258   1.426       .  A
C3254      C3255   1.404       .  A
C3254      H3263   1.079       .  S
C3255      C3256   1.403       .  A
C3255      S3259   1.800       .  S
C3256      C3257   1.403       .  A
C3257      C3258   1.399       .  A
C3257      H3264   1.082       .  S
C3258      S3260   1.807       .  S
S3259      H3262   1.407       .  S
S3260      H3261   1.406       .  S
C3265      C3266   1.408       .  A
C3265      C3270   1.433       .  A
C3266      C3267   1.409       .  A
C3266      H3275   1.079       .  S
C3267      C3268   1.425       .  A
C3267      S3271   1.801       .  S
C3268      C3269   1.398       .  A
C3269      C3270   1.402       .  A
C3269      H3276   1.082       .  S
C3270      S3272   1.813       .  S
S3271      H3274   1.408       .  S
S3272      H3273   1.406       .  S
O3277      C3287   1.278       .  A
O3278      C3288   1.274       .  A
O3278     Ni3285   1.904   1_655  S
O3279      C3289   1.291       .  A
O3280      C3290   1.290       .  A
O3281      C3290   1.273       .  A
O3282      C3289   1.272       .  A
O3283      C3288   1.291       .  A
O3284      C3287   1.288       .  A
O3284     Ni3286   1.945       .  S
C3287      C3709   1.488       .  S
C3288      C3736   1.501       .  S
C3289      C3724   1.490       .  S
C3290      C3700   1.483       .  S
O3291      C3301   1.276       .  A
O3292      C3302   1.276       .  A
O3292     Ni3299   1.893   1_655  S
O3293      C3303   1.290       .  A
O3294      C3304   1.290       .  A
O3295      C3304   1.274       .  A
O3296      C3303   1.273       .  A
O3297      C3302   1.290       .  A
O3297     Ni3300   1.954   1_655  S
O3298      C3301   1.290       .  A
Ni3299    Ni3300   2.382       .  S
C3301      C3649   1.495       .  S
C3302      C3676   1.495       .  S
C3303      C3661   1.488       .  S
C3304      C3685   1.486       .  S
N3305      H3337   1.042       .  S
N3305      C3309   1.354       .  A
N3306      C3313   1.355       .  A
N3306      C3314   1.351       .  A
N3307      H3338   1.039       .  S
N3307      C3311   1.356       .  A
N3308      C3315   1.350       .  A
N3308      C3316   1.350       .  A
C3309      C3317   1.390       .  A
C3309      C3325   1.418       .  A
C3310      C3326   1.412       .  A
C3310      C3318   1.384       .  A
C3311      C3319   1.385       .  A
C3311      C3328   1.421       .  A
C3312      C3327   1.421       .  A
C3312      C3320   1.379       .  A
C3313      C3325   1.409       .  A
C3313      C3321   1.381       .  A
C3314      C3328   1.421       .  A
C3314      C3322   1.387       .  A
C3315      C3323   1.381       .  A
C3315      C3326   1.403       .  A
C3316      C3324   1.388       .  A
C3316      C3327   1.416       .  A
C3317      H3329   1.080       .  S
C3318      H3330   1.080       .  S
C3319      H3331   1.082       .  S
C3320      H3332   1.076       .  S
C3321      C3322   1.377       .  A
C3321      H3333   1.082       .  S
C3322      H3334   1.082       .  S
C3323      C3324   1.376       .  A
C3323      H3335   1.082       .  S
C3324      H3336   1.082       .  S
C3325      C3377   1.496       .  S
C3326      C3370   1.484       .  S
C3327      C3480   1.533       .  S
C3328      C3468   1.527       .  S
C3339      C3340   1.533       .  S
C3339      C3345   1.525       .  S
C3339      C3343   1.555       .  S
C3339      C3721   1.548       .  S
C3340      H3347   1.085       .  S
C3340      C3341   1.360       .  D
C3341      C3415   1.500       .  S
C3341      C3342   1.545       .  S
C3342      C3346   1.549       .  S
C3342      C3344   1.551       .  S
C3342      H3348   1.090       .  S
C3343      H3349   1.081       .  S
C3343      C3344   1.381       .  D
C3344      C3451   1.534       .  S
C3345      H3350   1.082       .  S
C3345      C3346   1.366       .  D
C3346      C3637   1.515       .  S
C3351      C3352   1.523       .  S
C3351      C3357   1.531       .  S
C3351      C3355   1.557       .  S
C3351      C3688   1.544       .  S
C3352      H3359   1.085       .  S
C3352      C3353   1.354       .  D
C3353      C3625   1.493       .  S
C3353      C3354   1.544       .  S
C3354      C3358   1.551       .  S
C3354      C3356   1.547       .  S
C3354      H3360   1.104       .  S
C3355      H3361   1.082       .  S
C3355      C3356   1.385       .  D
C3356      C3452   1.533       .  S
C3357      H3362   1.084       .  S
C3357      C3358   1.363       .  D
C3358      C3416   1.497       .  S
C3363      C3364   1.525       .  S
C3363      C3369   1.534       .  S
C3363      C3367   1.553       .  S
C3363      C3664   1.542       .  S
C3364      H3371   1.089       .  S
C3364      C3365   1.344       .  D
C3365      C3613   1.464       .  S
C3365      C3366   1.533       .  S
C3366      C3370   1.537       .  S
C3366      C3368   1.563       .  S
C3366      H3372   1.093       .  S
C3367      H3373   1.080       .  S
C3367      C3368   1.392       .  D
C3368      C3542   1.541       .  S
C3369      H3374   1.085       .  S
C3369      C3370   1.355       .  D
C3375      C3376   1.534       .  S
C3375      C3381   1.520       .  S
C3375      C3379   1.559       .  S
C3375      C3697   1.543       .  S
C3376      H3383   1.085       .  S
C3376      C3377   1.362       .  D
C3377      C3378   1.547       .  S
C3378      C3382   1.537       .  S
C3378      C3380   1.567       .  S
C3378      H3384   1.104       .  S
C3379      H3385   1.081       .  S
C3379      C3380   1.389       .  D
C3380      C3541   1.548       .  S
C3381      H3386   1.089       .  S
C3381      C3382   1.346       .  D
C3382      C3601   1.473       .  S
C3387      C3628   1.475       .  S
C3388      C3640   1.481       .  S
C3389      C3390   1.410       .  A
C3389      H3394   1.082       .  S
C3390      C3604   1.512       .  S
C3391      C3616   1.440       .  S
C3391      C3392   1.396       .  A
C3392      H3393   1.085       .  S
N3395      H3427   1.036       .  S
N3395      C3399   1.355       .  A
N3396      C3403   1.361       .  A
N3396      C3404   1.365       .  A
N3397      H3428   1.044       .  S
N3397      C3401   1.363       .  A
N3398      C3405   1.356       .  A
N3398      C3406   1.353       .  A
C3399      C3407   1.384       .  A
C3399      C3415   1.419       .  A
C3400      C3416   1.415       .  A
C3400      C3408   1.384       .  A
C3401      C3409   1.389       .  A
C3401      C3418   1.439       .  A
C3402      C3417   1.426       .  A
C3402      C3410   1.385       .  A
C3403      C3415   1.418       .  A
C3403      C3411   1.372       .  A
C3404      C3418   1.446       .  A
C3404      C3412   1.390       .  A
C3405      C3413   1.381       .  A
C3405      C3416   1.410       .  A
C3406      C3414   1.376       .  A
C3406      C3417   1.415       .  A
C3407      H3419   1.071       .  S
C3408      H3420   1.074       .  S
C3409      H3421   1.082       .  S
C3410      H3422   1.082       .  S
C3411      C3412   1.353       .  A
C3411      H3423   1.082       .  S
C3412      H3424   1.055       .  S
C3413      C3414   1.362       .  A
C3413      H3425   1.080       .  S
C3414      H3426   1.065       .  S
C3417      C3492   1.530       .  S
C3418      C3504   1.555       .  S
N3429      H3461   1.040       .  S
N3429      C3434   1.351       .  A
N3429      C3433   1.354       .  A
N3430      C3437   1.364       .  A
N3430      C3438   1.354       .  A
N3431      H3462   1.044       .  S
N3431      C3436   1.359       .  A
N3431      C3435   1.356       .  A
N3432      C3439   1.361       .  A
N3432      C3440   1.356       .  A
C3433      C3441   1.377       .  A
C3433      C3449   1.407       .  A
C3434      C3450   1.402       .  A
C3434      C3442   1.378       .  A
C3435      C3443   1.380       .  A
C3435      C3452   1.410       .  A
C3436      C3451   1.409       .  A
C3436      C3444   1.382       .  A
C3437      C3449   1.417       .  A
C3437      C3445   1.379       .  A
C3438      C3452   1.422       .  A
C3438      C3446   1.379       .  A
C3439      C3447   1.379       .  A
C3439      C3450   1.410       .  A
C3440      C3448   1.380       .  A
C3440      C3451   1.416       .  A
C3441      C3442   1.355       .  A
C3441      H3453   1.061       .  S
C3442      H3454   1.073       .  S
C3443      C3444   1.369       .  A
C3443      H3455   1.077       .  S
C3444      H3456   1.081       .  S
C3445      C3446   1.365       .  A
C3445      H3457   1.081       .  S
C3446      H3458   1.065       .  S
C3447      C3448   1.361       .  A
C3447      H3459   1.081       .  S
C3448      H3460   1.073       .  S
C3449      C3477   1.508       .  S
C3450      C3470   1.489       .  S
C3463      C3464   1.524       .  S
C3463      C3469   1.536       .  S
C3463      C3467   1.549       .  S
C3463      C3712   1.553       .  S
C3464      H3471   1.087       .  S
C3464      C3465   1.365       .  D
C3465      C3589   1.504       .  S
C3465      C3466   1.538       .  S
C3466      C3470   1.544       .  S
C3466      C3468   1.551       .  S
C3466      H3472   1.088       .  S
C3467      H3473   1.080       .  S
C3467      C3468   1.388       .  D
C3469      H3474   1.081       .  S
C3469      C3470   1.362       .  D
C3475      C3476   1.552       .  S
C3475      C3481   1.519       .  S
C3475      C3479   1.550       .  S
C3475      C3652   1.555       .  S
C3476      H3483   1.082       .  S
C3476      C3477   1.372       .  D
C3477      C3478   1.544       .  S
C3478      C3482   1.546       .  S
C3478      C3480   1.554       .  S
C3478      H3484   1.096       .  S
C3479      H3485   1.080       .  S
C3479      C3480   1.389       .  D
C3481      H3486   1.088       .  S
C3481      C3482   1.349       .  D
C3482      C3577   1.493       .  S
C3487      C3488   1.535       .  S
C3487      C3493   1.517       .  S
C3487      C3491   1.549       .  S
C3487      C3673   1.546       .  S
C3488      H3495   1.084       .  S
C3488      C3489   1.365       .  D
C3489      C3539   1.504       .  S
C3489      C3490   1.557       .  S
C3490      C3494   1.557       .  S
C3490      C3492   1.564       .  S
C3490      H3496   1.102       .  S
C3491      H3497   1.081       .  S
C3491      C3492   1.376       .  D
C3493      H3498   1.087       .  S
C3493      C3494   1.361       .  D
C3494      C3565   1.516       .  S
C3499      C3500   1.518       .  S
C3499      C3505   1.539       .  S
C3499      C3503   1.570       .  S
C3499      C3733   1.546       .  S
C3500      H3507   1.089       .  S
C3500      C3501   1.342       .  D
C3501      C3553   1.482       .  S
C3501      C3502   1.558       .  S
C3502      C3506   1.531       .  S
C3502      C3504   1.561       .  S
C3502      H3508   1.092       .  S
C3503      H3509   1.080       .  S
C3503      C3504   1.395       .  D
C3505      H3510   1.085       .  S
C3505      C3506   1.362       .  D
C3506      C3540   1.508       .  S
C3511      C3580   1.478       .  S
C3511      C3512   1.417       .  A
C3512      C3592   1.487       .  S
C3513      C3514   1.406   1_455  A
C3513      H3518   1.084       .  S
C3514      C3556   1.484       .  S
C3514      C3515   1.414       .  A
C3515      C3568   1.479       .  S
C3515      C3516   1.394   1_655  A
C3516      H3517   1.085       .  S
N3519      H3551   1.040       .  S
N3519      C3524   1.357       .  A
N3519      C3523   1.358       .  A
N3520      C3527   1.360       .  A
N3520      C3528   1.357       .  A
N3521      H3552   1.044       .  S
N3521      C3526   1.367       .  A
N3521      C3525   1.364       .  A
N3522      C3529   1.359       .  A
N3522      C3530   1.357       .  A
C3523      C3531   1.373       .  A
C3523      C3539   1.409       .  A
C3524      C3540   1.416       .  A
C3524      C3532   1.378       .  A
C3525      C3533   1.383       .  A
C3525      C3542   1.429       .  A
C3526      C3541   1.425       .  A
C3526      C3534   1.380       .  A
C3527      C3539   1.410       .  A
C3527      C3535   1.373       .  A
C3528      C3542   1.432       .  A
C3528      C3536   1.394       .  A
C3529      C3537   1.375       .  A
C3529      C3540   1.408       .  A
C3530      C3538   1.385       .  A
C3530      C3541   1.423       .  A
C3531      C3532   1.355       .  A
C3531      H3543   1.069       .  S
C3532      H3544   1.063       .  S
C3533      C3534   1.369       .  A
C3533      H3545   1.079       .  S
C3534      H3546   1.076       .  S
C3535      C3536   1.361       .  A
C3535      H3547   1.083       .  S
C3536      H3548   1.071       .  S
C3537      C3538   1.355       .  A
C3537      H3549   1.081       .  S
C3538      H3550   1.063       .  S
C3553      C3554   1.396       .  A
C3553      C3558   1.420       .  A
C3554      C3555   1.391       .  A
C3554      H3563   1.079       .  S
C3555      C3556   1.411       .  A
C3555      S3559   1.798       .  S
C3556      C3557   1.403       .  A
C3557      C3558   1.395       .  A
C3557      H3564   1.082       .  S
C3558      S3560   1.807       .  S
S3559      H3562   1.407       .  S
S3560      H3561   1.399       .  S
C3565      C3566   1.413       .  A
C3565      C3570   1.423       .  A
C3566      C3567   1.387       .  A
C3566      H3575   1.083       .  S
C3567      C3568   1.407       .  A
C3567      S3571   1.810       .  S
C3568      C3569   1.404       .  A
C3569      C3570   1.410       .  A
C3569      H3576   1.083       .  S
C3570      S3572   1.805       .  S
S3572      H3573   1.407       .  S
C3577      C3578   1.409       .  A
C3577      C3582   1.410       .  A
C3578      C3579   1.393       .  A
C3578      H3587   1.084       .  S
C3579      C3580   1.406       .  A
C3579      S3583   1.801       .  S
C3580      C3581   1.406       .  A
C3581      C3582   1.405       .  A
C3581      H3588   1.083       .  S
C3582      S3584   1.801       .  S
S3583      H3586   1.406       .  S
S3584      H3585   1.407       .  S
C3589      C3590   1.403       .  A
C3589      C3594   1.420       .  A
C3590      C3591   1.387       .  A
C3590      H3599   1.084       .  S
C3591      C3592   1.413       .  A
C3591      S3595   1.800       .  S
C3592      C3593   1.406       .  A
C3593      C3594   1.409       .  A
C3593      H3600   1.082       .  S
C3594      S3596   1.805       .  S
S3595      H3598   1.404       .  S
S3596      H3597   1.407       .  S
C3601      C3602   1.391       .  A
C3601      C3606   1.409       .  A
C3602      C3603   1.402       .  A
C3602      H3611   1.085       .  S
C3603      C3604   1.441       .  A
C3604      C3605   1.407       .  A
C3605      C3606   1.384       .  A
C3605      H3612   1.082       .  S
C3606      S3608   1.802       .  S
S3607      H3610   2.901       .  S
S3608      H3609   1.398       .  S
C3613      C3614   1.690       .  A
C3613      C3618   1.702       .  A
C3614      C3615   1.677       .  A
C3614      H3623   1.077       .  S
C3615      C3616   1.697       .  A
C3616      C3617   1.690       .  A
C3617      C3618   1.680       .  A
C3617      H3624   1.082       .  S
C3618      S3620   1.788       .  S
S3619      H3622   1.405       .  S
S3620      H3621   1.397       .  S
C3625      C3626   1.408       .  A
C3625      C3630   1.424       .  A
C3626      C3627   1.398       .  A
C3626      H3635   1.081       .  S
C3627      C3628   1.405       .  A
C3627      S3631   1.798       .  S
C3628      C3629   1.396       .  A
C3629      C3630   1.391       .  A
C3629      H3636   1.085       .  S
C3630      S3632   1.806       .  S
S3632      H3633   1.408       .  S
C3637      C3638   1.419       .  A
C3637      C3642   1.426       .  A
C3638      C3639   1.390       .  A
C3638      H3647   1.077       .  S
C3639      C3640   1.402       .  A
C3639      S3643   1.806       .  S
C3640      C3641   1.397       .  A
C3641      C3642   1.400       .  A
C3641      H3648   1.074       .  S
C3642      S3644   1.809       .  S
S3644      H3645   1.402       .  S
C3649      C3650   1.402       .  A
C3649      C3654   1.406       .  A
C3650      C3651   1.406       .  A
C3650      H3659   1.082       .  S
C3651      C3652   1.429       .  A
C3651      S3655   1.813       .  S
C3652      C3653   1.421       .  A
C3653      C3654   1.415       .  A
C3653      H3660   1.075       .  S
C3654      S3656   1.806       .  S
S3655      H3658   1.406       .  S
S3656      H3657   1.406       .  S
C3661      C3662   1.405       .  A
C3661      C3666   1.404       .  A
C3662      C3663   1.403       .  A
C3662      H3671   1.082       .  S
C3663      C3664   1.423       .  A
C3663      S3667   1.803       .  S
C3664      C3665   1.424       .  A
C3665      C3666   1.401       .  A
C3665      H3672   1.079       .  S
C3666      S3668   1.801       .  S
S3667      H3670   1.406       .  S
S3668      H3669   1.406       .  S
C3673      C3674   1.421       .  A
C3673      C3678   1.428       .  A
C3674      C3675   1.408       .  A
C3674      H3683   1.079       .  S
C3675      C3676   1.409       .  A
C3675      S3679   1.801       .  S
C3676      C3677   1.404       .  A
C3677      C3678   1.401       .  A
C3677      H3684   1.082       .  S
C3678      S3680   1.814       .  S
S3679      H3682   1.407       .  S
S3680      H3681   1.406       .  S
C3685      C3686   1.399       .  A
C3685      C3690   1.407       .  A
C3686      C3687   1.395       .  A
C3686      H3695   1.082       .  S
C3687      C3688   1.426       .  A
C3687      S3691   1.805       .  S
C3688      C3689   1.423       .  A
C3689      C3690   1.408       .  A
C3689      H3696   1.079       .  S
C3690      S3692   1.802       .  S
S3691      H3694   1.406       .  S
S3692      H3693   1.406       .  S
C3697      C3698   1.424       .  A
C3697      C3702   1.425       .  A
C3698      C3699   1.406       .  A
C3698      H3707   1.079       .  S
C3699      C3700   1.405       .  A
C3699      S3703   1.803       .  S
C3700      C3701   1.400       .  A
C3701      C3702   1.397       .  A
C3701      H3708   1.083       .  S
C3702      S3704   1.802       .  S
S3703      H3706   1.406       .  S
S3704      H3705   1.406       .  S
C3709      C3710   1.401       .  A
C3709      C3714   1.409       .  A
C3710      C3711   1.403       .  A
C3710      H3719   1.082       .  S
C3711      C3712   1.426       .  A
C3711      S3715   1.813       .  S
C3712      C3713   1.420       .  A
C3713      C3714   1.409       .  A
C3713      H3720   1.076       .  S
C3714      S3716   1.805       .  S
S3715      H3718   1.407       .  S
S3716      H3717   1.406       .  S
C3721      C3722   1.425       .  A
C3721      C3726   1.425       .  A
C3722      C3723   1.406       .  A
C3722      H3731   1.080       .  S
C3723      C3724   1.405       .  A
C3723      S3727   1.801       .  S
C3724      C3725   1.404       .  A
C3725      C3726   1.399       .  A
C3725      H3732   1.083       .  S
C3726      S3728   1.805       .  S
S3727      H3730   1.407       .  S
S3728      H3729   1.408       .  S
C3733      C3734   1.406       .  A
C3733      C3738   1.436       .  A
C3734      C3735   1.405       .  A
C3734      H3743   1.079       .  S
C3735      C3736   1.423       .  A
C3735      S3739   1.801       .  S
C3736      C3737   1.398       .  A
C3737      C3738   1.404       .  A
C3737      H3744   1.082       .  S
C3738      S3740   1.813       .  S
S3739      H3742   1.408       .  S
S3740      H3741   1.407       .  S
