geometry optimzed in LAMMPS
_audit_creation_date              2020-12-01 
_audit_creation_method            'lammps2cif' 
_symmetry_space_group_name_H-M    'P1' 
_symmetry_Int_Tables_number       1 
_symmetry_cell_setting            triclinic 
loop_ 
_symmetry_equiv_pos_as_xyz 
  x,y,z 
_cell_length_a                    40.21064531 
_cell_length_b                    40.12985714022272 
_cell_length_c                    81.80258688822029 
_cell_angle_alpha                 90.10051011399067 
_cell_angle_beta                  89.87203724197919 
_cell_angle_gamma                 120.07478465732936 
loop_ 
_atom_site_label 
_atom_site_type_symbol 
_atom_site_fract_x 
_atom_site_fract_y 
_atom_site_fract_z 
_atom_site_charge 
N1          N  0.42144980  0.40801925  0.90449393    -0.26100
N2          N  0.44185590  0.42099535  0.89093029    -0.33900
C3          C  0.41894265  0.40456475  0.87796282     0.02300
C4          C  0.38222239  0.37928674  0.88341256     0.08300
C5          C  0.38464885  0.38237515  0.90037977    -0.04800
H6          H  0.42779526  0.41247979  0.86539256     0.09000
H7          H  0.36097076  0.36943637  0.90894815     0.10200
Cu8        Cu  0.00004010  0.47394078  0.88973421     0.44200
Cu9        Cu  0.44612705  0.43235184  0.92725200     0.42000
Cu10       Cu  0.03300687  0.02863733  0.92515731     0.43900
N11         N  0.04313281  0.02453148  0.88929517    -0.33500
N12         N  0.05770255  0.04765827  0.90202280    -0.27700
C13         C  0.08842503  0.08109419  0.89696363    -0.03800
C14         C  0.09329250  0.07809623  0.88027577     0.08400
C15         C  0.06416646  0.04186475  0.87597843     0.02200
H16         H  0.10579491  0.10549546  0.90478224     0.09800
H17         H  0.05777759  0.02949097  0.86383296     0.08900
N18         N  0.00561792  0.99773724  0.94639607    -0.34900
N19         N  0.47811519  0.46475697  0.94760594    -0.27100
C20         C  0.46922352  0.45492382  0.96343266    -0.02300
C21         C  0.49762138  0.98526916  0.97360873     0.06300
C22         C  0.01771461  0.01005932  0.96172371     0.04400
H23         H  0.44418036  0.42867857  0.96747928     0.09500
H24         H  0.04244201  0.03766546  0.96467110     0.08300
N25         N  0.03421236  0.07002720  0.77834306    -0.26100
N26         N  0.00721677  0.06074990  0.78953777    -0.33900
C27         C  0.02168579  0.08554352  0.80208406     0.02300
C28         C  0.05985271  0.11175458  0.79892800     0.08300
C29         C  0.06702382  0.10105918  0.78369737    -0.04800
H30         H  0.00608416  0.08329038  0.81321124     0.09000
H31         H  0.09414527  0.11410342  0.77722488     0.10200
Cu32       Cu  0.95430948  0.52772987  0.78969008     0.44200
Cu33       Cu  0.02239932  0.03760514  0.75675509     0.42000
Cu34       Cu  0.42104487  0.45379583  0.75510635     0.43900
N35         N  0.40100370  0.46514103  0.78937645    -0.33500
N36         N  0.39137860  0.43908371  0.77768609    -0.27700
C37         C  0.36280495  0.40486388  0.78341744    -0.03800
C38         C  0.35420496  0.41017796  0.79940698     0.08400
C39         C  0.37895400  0.44869609  0.80257292     0.02200
H40         H  0.35019587  0.37805722  0.77668653     0.09800
H41         H  0.38228586  0.46333612  0.81409520     0.08900
N42         N  0.45851858  0.48071538  0.73509452    -0.34900
N43         N  0.99676161  0.00230223  0.73623795    -0.27100
C44         C  0.00937238  0.01072457  0.72066746    -0.02300
C45         C  0.99295117  0.50489832  0.71084637     0.06300
C46         C  0.45246885  0.46988345  0.71921153     0.04400
H47         H  0.03537492  0.03652255  0.71699116     0.09500
H48         H  0.42672274  0.44506063  0.71465206     0.08300
N49         N  0.07816099  0.02139463  0.44468765    -0.26100
N50         N  0.04481803  0.45216489  0.46133449    -0.33900
C51         C  0.06187213  0.44824780  0.47468280     0.02300
C52         C  0.09927505  0.45864318  0.47078322     0.08300
C53         C  0.10987139  0.02126561  0.45011668    -0.04800
H54         H  0.04856238  0.44024258  0.48662965     0.09000
H55         H  0.12570085  0.01076870  0.44318876     0.10200
Cu56       Cu  0.99084236  0.44666112  0.46007654     0.44200
Cu57       Cu  0.04952567  0.00387946  0.42229019     0.42000
Cu58       Cu  0.45944425  0.01204096  0.42038181     0.43900
N59         N  0.43983150  0.44733223  0.45907738    -0.33500
N60         N  0.43793152  0.01750171  0.44295406    -0.27700
C61         C  0.40167266  0.00795547  0.44716990    -0.03800
C62         C  0.39030650  0.45268489  0.46744621     0.08400
C63         C  0.41632262  0.44136413  0.47175967     0.02200
H64         H  0.37747607  0.99578240  0.43888256     0.09800
H65         H  0.41944608  0.43162295  0.48368499     0.08900
N66         N  0.48896188  0.00597968  0.40049031    -0.34900
N67         N  0.01776344  0.99441866  0.40083633    -0.27100
C68         C  0.02855806  0.98923383  0.38589790    -0.02300
C69         C  0.00239991  0.98760784  0.37446631     0.06300
C70         C  0.47874017  0.00244517  0.38461552     0.04400
H71         H  0.05468656  0.98859330  0.38346967     0.09500
H72         H  0.45344288  0.00245865  0.38015369     0.08300
N73         N  0.46487458  0.52745148  0.56820358    -0.26100
N74         N  0.49044619  0.54113561  0.55625464    -0.33900
C75         C  0.47417075  0.54631981  0.54292078     0.02300
C76         C  0.43639726  0.53518332  0.54649066     0.08300
C77         C  0.43131374  0.52322541  0.56268181    -0.04800
H78         H  0.48836192  0.55595881  0.53120686     0.09000
H79         H  0.40518363  0.51173655  0.56981688     0.10200
Cu80       Cu  0.04065541  0.54027225  0.55792878     0.44200
Cu81       Cu  0.47876941  0.51533426  0.59112885     0.42000
Cu82       Cu  0.07426832  0.52406944  0.59562196     0.43900
N83         N  0.08826377  0.53329589  0.55944053    -0.33500
N84         N  0.10125530  0.52686927  0.57320582    -0.27700
C85         C  0.12911726  0.51849600  0.56950746    -0.03800
C86         C  0.13386046  0.52013416  0.55261556     0.08400
C87         C  0.10708561  0.52907649  0.54676080     0.02200
H88         H  0.14243531  0.50866959  0.57826813     0.09800
H89         H  0.09966464  0.52941517  0.53407701     0.08900
N90         N  0.03817005  0.51921122  0.61525675    -0.34900
N91         N  0.50222291  0.51071078  0.61315100    -0.27100
C92         C  0.48513811  0.50441016  0.62788573    -0.02300
C93         C  0.01399283  0.51316275  0.64031794     0.06300
C94         C  0.04535474  0.51791190  0.63128200     0.04400
H95         H  0.45677117  0.50044834  0.62985904     0.09500
H96         H  0.07131861  0.51969997  0.63599295     0.08300
N97         N  0.00193596  0.40780891  0.11163128    -0.26100
N98         N  0.99467443  0.42109231  0.12514592    -0.33900
C99         C  0.00176619  0.40540120  0.13817230     0.02300
C100        C  0.01347498  0.38035282  0.13278521     0.08300
C101        C  0.01357733  0.38263657  0.11582083    -0.04800
H102        H  0.00102934  0.41368090  0.15070684     0.09000
H103        H  0.02419133  0.36948534  0.10729460     0.10200
Cu104      Cu  0.00782021  0.97824267  0.12602566     0.44200
Cu105      Cu  0.00081070  0.43128514  0.08889424     0.42000
Cu106      Cu  0.02188117  0.03402607  0.09036794     0.43900
N107        N  0.00748742  0.02971336  0.12629554    -0.33500
N108        N  0.01503004  0.05231496  0.11344795    -0.27700
C109        C  0.01576508  0.08499635  0.11825799    -0.03800
C110        C  0.00763862  0.08208909  0.13490034     0.08400
C111        C  0.00246837  0.04669169  0.13944645     0.02200
H112        H  0.02152209  0.10877853  0.11028239     0.09800
H113        H  0.99678582  0.03466836  0.15164658     0.08900
N114        N  0.01973416  0.00351373  0.06921940    -0.34900
N115        N  0.00010443  0.46365623  0.06889252    -0.30100
C116        C  0.99615391  0.45280639  0.05308313    -0.02300
C117        C  0.99790518  0.48207071  0.04344826     0.06300
C118        C  0.01700559  0.01391948  0.05385936     0.04400
H119        H  0.99279451  0.42570177  0.04889996     0.09500
H120        H  0.01650882  0.03987714  0.05080284     0.08300
N121        N  0.06192389  0.07670094  0.23600820    -0.26100
N122        N  0.07906411  0.06746838  0.22452671    -0.33900
C123        C  0.08817893  0.09191925  0.21193074     0.02300
C124        C  0.07593793  0.11775589  0.21540645     0.08300
C125        C  0.05924808  0.10728347  0.23083124    -0.04800
H126        H  0.10079685  0.08962368  0.20058892     0.09000
H127        H  0.04533845  0.12014262  0.23757057     0.10200
Cu128      Cu  0.08383679  0.01836242  0.22506717     0.44200
Cu129      Cu  0.04292648  0.04490796  0.25768501     0.42000
Cu130      Cu  0.04547876  0.45146914  0.26143567     0.43900
N131        N  0.07538194  0.46315442  0.22718130    -0.33500
N132        N  0.06004958  0.43699821  0.23885331    -0.27700
C133        C  0.05556427  0.40328527  0.23307133    -0.03800
C134        C  0.06912257  0.40907443  0.21703135     0.08400
C135        C  0.08148095  0.44732779  0.21389023     0.02200
H136        H  0.04251494  0.37652448  0.23982719     0.09800
H137        H  0.09219885  0.46212749  0.20236351     0.08900
N138        N  0.03646608  0.47745583  0.28206906    -0.34900
N139        N  0.03292488  0.01039946  0.27837578    -0.27100
C140        C  0.02440886  0.01748919  0.29345887    -0.02300
C141        C  0.02253122  0.98973064  0.30410510     0.06300
C142        C  0.03336713  0.46531882  0.29765625     0.04400
H143        H  0.02099763  0.04183848  0.29653249     0.09500
H144        H  0.03481371  0.44018054  0.30130061     0.08300
C145        C  0.04214090  0.31914276  0.19021530    -0.09600
C146        C  0.03307530  0.33122765  0.17564095    -0.03500
C147        C  0.02711124  0.31145007  0.16078344    -0.09600
C148        C  0.02883748  0.27699425  0.16057339     0.11300
C149        C  0.03701025  0.26343498  0.17525030    -0.01400
C150        C  0.04356633  0.28447959  0.19010719     0.11100
C151        C  0.05193537  0.27054978  0.20435536    -0.11400
C152        C  0.05348039  0.23657130  0.20417717    -0.11400
C153        C  0.04685221  0.21511740  0.18973336     0.11100
C154        C  0.03874959  0.22875533  0.17505181    -0.01400
C155        C  0.02292745  0.25586820  0.14606022    -0.11600
C156        C  0.02433829  0.22184656  0.14589576    -0.11600
C157        C  0.03226385  0.20775365  0.16018451     0.11300
C158        C  0.03325374  0.17290666  0.16012566    -0.09600
C159        C  0.04222387  0.16077657  0.17468078    -0.03500
C160        C  0.04898078  0.18088137  0.18945267    -0.09600
H161        H  0.05768473  0.28595912  0.21581274     0.08600
H162        H  0.06038633  0.22750830  0.21549764     0.08600
H163        H  0.01725229  0.26546523  0.13460067     0.08800
H164        H  0.01910483  0.20665649  0.13439993     0.08800
H165        H  0.02915235  0.35602189  0.17604431     0.05200
H166        H  0.04349400  0.13445768  0.17454505     0.05200
C167        C  0.14828946  0.17809656  0.82556743    -0.09600
C168        C  0.13522284  0.15737619  0.84021906    -0.03500
C169        C  0.15582480  0.16979830  0.85491063    -0.09600
C170        C  0.19102369  0.20533940  0.85510597     0.11300
C171        C  0.20525593  0.22707988  0.84041446    -0.01400
C172        C  0.18384001  0.21341359  0.82562209     0.11100
C173        C  0.19820721  0.23586144  0.81141134    -0.11400
C174        C  0.23312993  0.27058372  0.81151780    -0.11400
C175        C  0.25539133  0.28425654  0.82581181     0.11100
C176        C  0.24118250  0.26244135  0.84049125    -0.01400
C177        C  0.21277749  0.21936645  0.86948703    -0.11600
C178        C  0.24777706  0.25390140  0.86957334    -0.11600
C179        C  0.26281716  0.27577039  0.85524107     0.11300
C180        C  0.29877550  0.31064577  0.85526515    -0.09600
C181        C  0.31232852  0.33103929  0.84052977    -0.03500
C182        C  0.29123902  0.31928886  0.82590643    -0.09600
H183        H  0.18235296  0.22692694  0.80005200     0.08600
H184        H  0.24244979  0.28667511  0.80021879     0.08600
H185        H  0.20305511  0.20363329  0.88086099     0.08800
H186        H  0.26289663  0.26328314  0.88108150     0.08800
H187        H  0.10827892  0.13036996  0.84015581     0.05200
H188        H  0.34093960  0.35599469  0.84022733     0.05200
C189        C  0.20390058  0.50902980  0.52414059    -0.09600
C190        C  0.18231879  0.50107030  0.50976031    -0.03500
C191        C  0.19261022  0.49028488  0.49513261    -0.09600
C192        C  0.22756385  0.48969430  0.49448460     0.11300
C193        C  0.25077814  0.49875825  0.50875509    -0.01400
C194        C  0.23890048  0.50838622  0.52361806     0.11100
C195        C  0.26217332  0.51670622  0.53754430    -0.11400
C196        C  0.29653612  0.51604191  0.53697211    -0.11400
C197        C  0.30888651  0.50656085  0.52249721     0.11100
C198        C  0.28581530  0.49785548  0.50819245    -0.01400
C199        C  0.23967292  0.47973967  0.48006158    -0.11600
C200        C  0.27400477  0.47904468  0.47949498    -0.11600
C201        C  0.29758107  0.48807155  0.49334480     0.11300
C202        C  0.33207928  0.48657146  0.49291997    -0.09600
C203        C  0.35442882  0.49584608  0.50711768    -0.03500
C204        C  0.34393254  0.50609843  0.52182309    -0.09600
H205        H  0.25400852  0.52378334  0.54908137     0.08600
H206        H  0.31339932  0.52318728  0.54804708     0.08600
H207        H  0.22256523  0.47208420  0.46904530     0.08800
H208        H  0.28171230  0.47093854  0.46808915     0.08800
H209        H  0.15718792  0.50438979  0.50981326     0.05200
H210        H  0.38084140  0.49485594  0.50670469     0.05200
C211        C  0.05565368  0.16328579  0.20437003    -0.15200
C212        C  0.07683757  0.14581417  0.20341477    -0.30400
H213        H  0.53805409  0.16133521  0.21620004     0.13800
H214        H  0.09299677  0.14906123  0.19228382     0.14400
C215        C  0.04832676  0.34312464  0.20529402    -0.15200
C216        C  0.06784102  0.38193935  0.20433838    -0.30400
H217        H  0.03492489  0.32913004  0.21673424     0.13800
H218        H  0.08181812  0.39514337  0.19284457     0.14400
C219        C  0.00627594  0.10952458  0.14661037    -0.15200
C220        C  0.02611664  0.14825103  0.14522823    -0.30400
H221        H  0.48149390  0.09419636  0.15932126     0.13800
H222        H  0.04042027  0.16156384  0.13382005     0.14400
C223        C  0.01626275  0.32629740  0.14609395    -0.15200
C224        C  0.03155311  0.36433349  0.14345209    -0.30400
H225        H  0.48746148  0.30445730  0.14024831     0.13800
H226        H  0.05426883  0.38471699  0.15141374     0.14400
C227        C  0.36993192  0.51436519  0.53624881    -0.15200
C228        C  0.40846273  0.53357311  0.53431606    -0.30400
H229        H  0.35749716  0.50206254  0.54804892     0.13800
H230        H  0.38642100  0.02530926  0.53135524     0.14400
C231        C  0.18955170  0.52011663  0.53901725    -0.15200
C232        C  0.15156535  0.50277430  0.54236162    -0.30400
H233        H  0.20957871  0.54498412  0.54614619     0.13800
H234        H  0.13170166  0.47817779  0.53504738     0.14400
C235        C  0.03769810  0.46956607  0.35247753    -0.12100
C236        C  0.00512191  0.98565599  0.35637879     0.10000
C237        C  0.98872708  0.00149047  0.34605078    -0.12100
C238        C  0.99414261  0.00254556  0.32908604    -0.12100
C239        C  0.01540169  0.98709365  0.32202603     0.10000
C240        C  0.04016373  0.47027315  0.33537977    -0.12100
H241        H  0.04968875  0.45494896  0.35927612     0.14000
H242        H  0.97274936  0.01422238  0.35109889     0.14000
H243        H  0.98173051  0.01556476  0.32149007     0.14000
H244        H  0.05444013  0.45664120  0.32951673     0.14000
C245        C  0.36316792  0.45435197  0.47925613    -0.15200
C246        C  0.34717319  0.47682951  0.47793150    -0.30400
H247        H  0.36010511  0.43964568  0.49078920     0.13800
H248        H  0.34903098  0.49138140  0.46650371     0.14400
C249        C  0.12786319  0.46159642  0.48291226    -0.15200
C250        C  0.16630498  0.48125570  0.48077352    -0.30400
H251        H  0.11643093  0.44941498  0.49486934     0.13800
H252        H  0.17832824  0.49298907  0.46885240     0.14400
C253        C  0.01776050  0.99774522  0.68360689    -0.12100
C254        C  0.99842860  0.50592043  0.69279458     0.10000
C255        C  0.45979939  0.47868752  0.68113626    -0.12100
C256        C  0.46613689  0.48143760  0.66418211    -0.12100
C257        C  0.00881079  0.51021423  0.65837186     0.10000
C258        C  0.01804853  0.99622529  0.66648035    -0.12100
H259        H  0.04487135  0.01153877  0.69008432     0.14000
H260        H  0.43055126  0.46350867  0.68565286     0.14000
H261        H  0.44155188  0.46787143  0.65611316     0.14000
H262        H  0.04541070  0.00928793  0.66017705     0.14000
C263        C  0.32876806  0.38258559  0.81209759    -0.15200
C264        C  0.30909447  0.34376916  0.81093212    -0.30400
H265        H  0.32823523  0.39551849  0.82370938     0.13800
H266        H  0.30808194  0.33009402  0.79934233     0.14400
C267        C  0.12483997  0.15992187  0.81042378    -0.15200
C268        C  0.08602738  0.14031454  0.81111906    -0.30400
H269        H  0.13933983  0.15932498  0.79931420     0.13800
H270        H  0.07220348  0.14243100  0.82218884     0.14400
C271        C  0.01514896  0.01715093  0.99922641    -0.12100
C272        C  0.99838688  0.98200418  0.99070983     0.10000
C273        C  0.48023096  0.45038972  0.00053284    -0.12100
C274        C  0.48253263  0.45091843  0.01762300    -0.12100
C275        C  0.00796559  0.98409678  0.02510966     0.10000
C276        C  0.01959774  0.01815971  0.01622336    -0.12100
H277        H  0.02462686  0.04394927  0.99275884     0.14000
H278        H  0.46411840  0.42289394  0.99441033     0.14000
H279        H  0.46771116  0.42385730  0.02415226     0.14000
H280        H  0.03275414  0.04577533  0.02235459     0.14000
C281        C  0.34783938  0.36323045  0.87278260    -0.15200
C282        C  0.32475223  0.32519047  0.86997504    -0.30400
H283        H  0.34540708  0.38381195  0.86501076     0.13800
H284        H  0.32767577  0.30470607  0.87761386     0.14400
C285        C  0.13861626  0.14473724  0.86972206    -0.15200
C286        C  0.12069300  0.10605561  0.86830997    -0.30400
H287        H  0.13749951  0.15770572  0.88121562     0.13800
H288        H  0.12261758  0.09374290  0.85674832     0.14400
N289        N  0.41895901  0.91971539  0.90479223    -0.26100
N290        N  0.43211728  0.94312198  0.89210509    -0.33900
C291        C  0.40864268  0.92703342  0.87934868     0.02300
C292        C  0.37929077  0.89130370  0.88393085     0.08300
C293        C  0.38651928  0.88720107  0.90022089    -0.04800
H294        H  0.41270250  0.94049147  0.86749442     0.09000
H295        H  0.36887691  0.86333018  0.90823939     0.10200
Cu296      Cu  0.99277840  0.97209534  0.88999883     0.44200
Cu297      Cu  0.44694011  0.93853961  0.92733538     0.42000
Cu298      Cu  0.03841622  0.53105363  0.92552365     0.43900
N299        N  0.05067446  0.52603901  0.88975927    -0.33500
N300        N  0.06445423  0.54919753  0.90253155    -0.27700
C301        C  0.09514245  0.58279759  0.89761350    -0.03800
C302        C  0.10075471  0.57988474  0.88099709     0.08400
C303        C  0.07215645  0.54355642  0.87657784     0.02200
H304        H  0.11168736  0.60742727  0.90544037     0.09800
H305        H  0.06615008  0.53137727  0.86439575     0.08900
N306        N  0.00751673  0.50112930  0.94641947    -0.34900
N307        N  0.47923430  0.96970236  0.94773253    -0.27100
C308        C  0.47156430  0.95677510  0.96325530    -0.02300
C309        C  0.49686024  0.48376952  0.97325453     0.06300
C310        C  0.01791112  0.51242969  0.96201420     0.04400
H311        H  0.44812515  0.92879493  0.96674654     0.09500
H312        H  0.04349913  0.53883453  0.96549453     0.08300
N313        N  0.03573536  0.58511801  0.78001160    -0.26100
N314        N  0.00892563  0.57611027  0.79125342    -0.33900
C315        C  0.02454047  0.59943420  0.80421799     0.02300
C316        C  0.06318964  0.62414528  0.80116205     0.08300
C317        C  0.06937988  0.61428736  0.78562740    -0.04800
H318        H  0.00946785  0.59681706  0.81554536     0.09000
H319        H  0.09645761  0.62621686  0.77916739     0.10200
Cu320      Cu  0.95354019  0.01118294  0.78888098     0.44200
Cu321      Cu  0.02365518  0.55431762  0.75823444     0.42000
Cu322      Cu  0.43351907  0.94923186  0.75731342     0.43900
N323        N  0.41042377  0.96267752  0.79028187    -0.33500
N324        N  0.40273274  0.93576338  0.77921146    -0.27700
C325        C  0.37500074  0.90149114  0.78510638    -0.03800
C326        C  0.36484578  0.90749596  0.80062951     0.08400
C327        C  0.38786151  0.94655967  0.80338991     0.02200
H328        H  0.36419443  0.87424866  0.77883670     0.09800
H329        H  0.38964557  0.96184361  0.81456426     0.08900
N330        N  0.46798510  0.97376497  0.73667648    -0.34900
N331        N  0.00124349  0.52172960  0.73706109    -0.27100
C332        C  0.01751136  0.53160339  0.72215223    -0.02300
C333        C  0.98245871  0.98248263  0.71043779     0.06300
C334        C  0.45892333  0.95993346  0.72133576     0.04400
H335        H  0.04465723  0.55735669  0.71967019     0.09500
H336        H  0.43275647  0.93388272  0.71804663     0.08300
N337        N  0.06944412  0.46422574  0.44903850    -0.26100
N338        N  0.06526472  0.03463338  0.45643014    -0.33900
C339        C  0.08849891  0.04383816  0.46945690     0.02300
C340        C  0.11726082  0.03556033  0.46600202     0.08300
C341        C  0.10328848  0.46873153  0.45435070    -0.04800
H342        H  0.08350979  0.05374927  0.48102070     0.09000
H343        H  0.12894005  0.47936647  0.44694489     0.10200
Cu344      Cu  0.01333034  0.03408007  0.45532960     0.44200
Cu345      Cu  0.05345898  0.47467449  0.42621982     0.42000
Cu346      Cu  0.45999253  0.47458481  0.42441449     0.43900
N347        N  0.45926633  0.02748100  0.45630750    -0.33500
N348        N  0.42979816  0.46147642  0.44667058    -0.27700
C349        C  0.39963498  0.46547310  0.45137875    -0.03800
C350        C  0.40043700  0.01239756  0.46395892     0.08400
C351        C  0.43729937  0.02423898  0.46927940     0.02200
H352        H  0.38620312  0.47753841  0.44385069     0.09800
H353        H  0.44684435  0.02773188  0.48184656     0.08900
N354        N  0.49421592  0.47917102  0.40408784    -0.34900
N355        N  0.02799413  0.48079359  0.40506314    -0.27100
C356        C  0.04101559  0.48216365  0.38976457    -0.02300
C357        C  0.01672102  0.48575149  0.37883907     0.06300
C358        C  0.48649125  0.48205280  0.38826722     0.04400
H359        H  0.06641757  0.48055048  0.38683418     0.09500
H360        H  0.46161737  0.48333100  0.38413606     0.08300
N361        N  0.41582405  0.97700438  0.57082359    -0.26100
N362        N  0.43169003  0.97339796  0.55728816    -0.33900
C363        C  0.41492083  0.97925551  0.54432244     0.02300
C364        C  0.38651051  0.98624468  0.54979179     0.08300
C365        C  0.38788506  0.98488903  0.56673867    -0.04800
H366        H  0.42420612  0.98048434  0.53180013     0.09000
H367        H  0.37192387  0.99192775  0.57537969     0.10200
Cu368      Cu  0.98747256  0.98278682  0.55679289     0.44200
Cu369      Cu  0.43914665  0.97613340  0.59351785     0.42000
Cu370      Cu  0.03360516  0.98040364  0.59294459     0.43900
N371        N  0.03599633  0.97803212  0.55658154    -0.33500
N372        N  0.05535059  0.97889712  0.56974609    -0.27700
C373        C  0.08671403  0.97711061  0.56493252    -0.03800
C374        C  0.08602591  0.97432618  0.54794613     0.08400
C375        C  0.05346668  0.97484120  0.54322530     0.02200
H376        H  0.10774641  0.97696448  0.57310872     0.09800
H377        H  0.04345833  0.97366332  0.53085142     0.08900
N378        N  0.00140965  0.97892123  0.61353669    -0.34900
N379        N  0.47097403  0.97719093  0.61392455    -0.27100
C380        C  0.46011443  0.97675242  0.62953784    -0.02300
C381        C  0.98367919  0.97790757  0.63942759     0.06300
C382        C  0.01211983  0.97972079  0.62920739     0.04400
H383        H  0.43364371  0.97560638  0.63311110     0.09500
H384        H  0.03870155  0.98130091  0.63287727     0.08300
N385        N  0.01895567  0.91492156  0.11190283    -0.26100
N386        N  0.01472475  0.93042194  0.12544475    -0.33900
C387        C  0.01861840  0.91225907  0.13841359     0.02300
C388        C  0.02485371  0.88329803  0.13293804     0.08300
C389        C  0.02522854  0.88585189  0.11599640    -0.04800
H390        H  0.01861576  0.92065781  0.15099233     0.09000
H391        H  0.03195999  0.86957346  0.10739127     0.10200
Cu392      Cu  0.98353998  0.46591748  0.12573526     0.44200
Cu393      Cu  0.01958046  0.93878588  0.08909946     0.42000
Cu394      Cu  0.00735408  0.52799620  0.09141984     0.43900
N395        N  0.98850937  0.51950946  0.12707469    -0.33500
N396        N  0.00007998  0.54439940  0.11487938    -0.27700
C397        C  0.00466531  0.57815189  0.12055933    -0.03800
C398        C  0.99497644  0.57360328  0.13706675     0.08400
C399        C  0.98487049  0.53614141  0.14064857     0.02200
H400        H  0.01433853  0.60387111  0.11327887     0.09800
H401        H  0.97696927  0.52237557  0.15250414     0.08900
N402        N  0.00390831  0.49841209  0.06974803    -0.34900
N403        N  0.01813795  0.96970339  0.06875854    -0.30100
C404        C  0.01411584  0.95785853  0.05309153    -0.02300
C405        C  0.01320554  0.98537662  0.04315439     0.06300
C406        C  0.00295460  0.51052711  0.05448199     0.04400
H407        H  0.01179541  0.93096322  0.04926152     0.09500
H408        H  0.00494409  0.53779778  0.05166506     0.08300
N409        N  0.05769362  0.57439738  0.23947183    -0.26100
N410        N  0.07478805  0.56548209  0.22785879    -0.33900
C411        C  0.08232679  0.58917733  0.21510064     0.02300
C412        C  0.06908766  0.61419719  0.21859261     0.08300
C413        C  0.05346172  0.60404345  0.23421907    -0.04800
H414        H  0.09456288  0.58686395  0.20365222     0.09000
H415        H  0.03924790  0.61646321  0.24104553     0.10200
Cu416      Cu  0.08152089  0.51755195  0.22845577     0.44200
Cu417      Cu  0.04104521  0.54316447  0.26134028     0.42000
Cu418      Cu  0.04798475  0.95425724  0.25892942     0.43900
N419        N  0.07597367  0.96319306  0.22446890    -0.33500
N420        N  0.06118080  0.93826992  0.23661428    -0.27700
C421        C  0.05542607  0.90372929  0.23144261    -0.03800
C422        C  0.06757548  0.90757011  0.21528780     0.08400
C423        C  0.08043517  0.94559271  0.21139211     0.02200
H424        H  0.04243395  0.87772670  0.23871392     0.09800
H425        H  0.09043430  0.95902238  0.19956397     0.08900
N426        N  0.03614795  0.97912395  0.27894577    -0.34900
N427        N  0.03393913  0.50917246  0.28192214    -0.27100
C428        C  0.02876328  0.51753310  0.29735797    -0.02300
C429        C  0.02836791  0.49021242  0.30783963     0.06300
C430        C  0.03029071  0.96600849  0.29443904     0.04400
H431        H  0.02679787  0.54255887  0.30074629     0.09500
H432        H  0.03139084  0.94083608  0.29833934     0.08300
C433        C  0.03586038  0.81424155  0.19059002    -0.09600
C434        C  0.02781996  0.82602677  0.17573595    -0.03500
C435        C  0.02327392  0.80629038  0.16102808    -0.09600
C436        C  0.02312843  0.77087881  0.16142020     0.11300
C437        C  0.02956137  0.75720196  0.17649517    -0.01400
C438        C  0.03609790  0.77902638  0.19110691     0.11100
C439        C  0.04336175  0.76536349  0.20570920    -0.11400
C440        C  0.04397377  0.73090149  0.20609940    -0.11400
C441        C  0.03736917  0.70866503  0.19190328     0.11100
C442        C  0.03015595  0.72195334  0.17690032    -0.01400
C443        C  0.01716536  0.74898818  0.14717667    -0.11600
C444        C  0.01708922  0.71421162  0.14762374    -0.11600
C445        C  0.02378510  0.70024042  0.16227302     0.11300
C446        C  0.02376534  0.66490984  0.16277142    -0.09600
C447        C  0.03171580  0.65297445  0.17762888    -0.03500
C448        C  0.03883259  0.67406453  0.19215291    -0.09600
H449        H  0.04897098  0.78136321  0.21700004     0.08600
H450        H  0.05007466  0.72204153  0.21766046     0.08600
H451        H  0.01238056  0.75849052  0.13550151     0.08800
H452        H  0.01174884  0.69842479  0.13629103     0.08800
H453        H  0.02481030  0.85139565  0.17564631     0.05200
H454        H  0.03243157  0.62636211  0.17790722     0.05200
C455        C  0.15470635  0.68206566  0.82719199    -0.09600
C456        C  0.14127835  0.66136303  0.84181724    -0.03500
C457        C  0.16290821  0.67229731  0.85625938    -0.09600
C458        C  0.19919542  0.70651247  0.85632814     0.11300
C459        C  0.21404466  0.72769437  0.84156035    -0.01400
C460        C  0.19194257  0.71522147  0.82691650     0.11100
C461        C  0.20734439  0.73678762  0.81254378    -0.11400
C462        C  0.24376794  0.76964544  0.81240129    -0.11400
C463        C  0.26618652  0.78253335  0.82665881     0.11100
C464        C  0.25105791  0.76153755  0.84146141    -0.01400
C465        C  0.22128548  0.71981580  0.87066237    -0.11600
C466        C  0.25690522  0.75361598  0.87068210    -0.11600
C467        C  0.27241216  0.77483359  0.85626213     0.11300
C468        C  0.30838843  0.80937585  0.85623344    -0.09600
C469        C  0.32362662  0.82802936  0.84132235    -0.03500
C470        C  0.30290988  0.81634962  0.82667489    -0.09600
H471        H  0.19123876  0.72866282  0.80124533     0.08600
H472        H  0.25397143  0.78514827  0.80099649     0.08600
H473        H  0.21110487  0.70437213  0.88208020     0.08800
H474        H  0.27233230  0.76279858  0.88213376     0.08800
H475        H  0.11329226  0.63549477  0.84193301     0.05200
H476        H  0.35237911  0.85288380  0.84119172     0.05200
C477        C  0.17459291  0.99702547  0.52204597    -0.09600
C478        C  0.16216672  0.00543583  0.50741953    -0.03500
C479        C  0.18212616  0.01190566  0.49260206    -0.09600
C480        C  0.21644660  0.00995066  0.49240893     0.11300
C481        C  0.23012959  0.00212404  0.50715241    -0.01400
C482        C  0.20920147  0.99581167  0.52200079     0.11100
C483        C  0.22305314  0.98771141  0.53632256    -0.11400
C484        C  0.25697889  0.98628843  0.53624148    -0.11400
C485        C  0.27831183  0.99251274  0.52179697     0.11100
C486        C  0.26480670  0.00049882  0.50705424    -0.01400
C487        C  0.23781329  0.01619161  0.47797222    -0.11600
C488        C  0.27170030  0.01457796  0.47787391    -0.11600
C489        C  0.28594056  0.00702934  0.49224256     0.11300
C490        C  0.32039372  0.00528553  0.49219455    -0.09600
C491        C  0.33313458  0.99781547  0.50696060    -0.03500
C492        C  0.31319448  0.99177228  0.52175230    -0.09600
H493        H  0.20774187  0.98232894  0.54778957     0.08600
H494        H  0.26640475  0.98043724  0.54770659     0.08600
H495        H  0.22864964  0.02261275  0.46656712     0.08800
H496        H  0.28651857  0.01915251  0.46632665     0.08800
H497        H  0.13579011  0.00648037  0.50756638     0.05200
H498        H  0.35964702  0.99706298  0.50701889     0.05200
C499        C  0.04626431  0.65762518  0.20727206    -0.15200
C500        C  0.06843417  0.64120671  0.20644385    -0.30400
H501        H  0.53167211  0.65722524  0.21970639     0.13800
H502        H  0.08435673  0.64444772  0.19523673     0.14400
C503        C  0.04363591  0.84002271  0.20511037    -0.15200
C504        C  0.06464871  0.87860761  0.20328297    -0.30400
H505        H  0.03027891  0.82771027  0.21678279     0.13800
H506        H  0.07852058  0.89013647  0.19158303     0.14400
C507        C  0.99651291  0.60121519  0.14944461    -0.15200
C508        C  0.01682001  0.63986679  0.14805987    -0.30400
H509        H  0.48176885  0.58814009  0.16253900     0.13800
H510        H  0.03054078  0.65291314  0.13653097     0.14400
C511        C  0.01766031  0.82370343  0.14578840    -0.15200
C512        C  0.03759996  0.86222622  0.14359996    -0.30400
H513        H  0.48894779  0.80425344  0.13966019     0.13800
H514        H  0.06018760  0.87989002  0.15222215     0.14400
C515        C  0.32933675  0.98322251  0.53665886    -0.15200
C516        C  0.36754179  0.00165905  0.53932306    -0.30400
H517        H  0.31036267  0.95916438  0.54442482     0.13800
H518        H  0.42045491  0.54657192  0.52253698     0.14400
C519        C  0.15079403  0.99094541  0.53710489    -0.15200
C520        C  0.11215902  0.97106192  0.53617733    -0.30400
H521        H  0.16471731  0.00613350  0.54828093     0.13800
H522        H  0.09888337  0.95627408  0.52483190     0.14400
C523        C  0.02577249  0.96955161  0.34928155    -0.12100
C524        C  0.01943418  0.48688025  0.36066438     0.10000
C525        C  0.00396757  0.50522643  0.35131862    -0.12100
C526        C  0.00710898  0.50659760  0.33420506    -0.12100
C527        C  0.02507366  0.48894299  0.32601516     0.10000
C528        C  0.03056549  0.96995332  0.33229722    -0.12100
H529        H  0.03845526  0.95679265  0.35687072     0.14000
H530        H  0.98990853  0.51901080  0.35724865     0.14000
H531        H  0.99502245  0.52108438  0.32737765     0.14000
H532        H  0.04712680  0.95784238  0.32726123     0.14000
C533        C  0.36647827  0.99656776  0.47480085    -0.15200
C534        C  0.34570363  0.01407415  0.47738891    -0.30400
H535        H  0.36231435  0.97303682  0.48267888     0.13800
H536        H  0.35032305  0.03774768  0.46949215     0.14400
C537        C  0.14543258  0.03775892  0.47825236    -0.15200
C538        C  0.16430405  0.01784431  0.47754105    -0.30400
H539        H  0.14737725  0.05352510  0.48935645     0.13800
H540        H  0.16324951  0.00255945  0.46641878     0.14400
C541        C  0.03543998  0.52656034  0.68588795    -0.12100
C542        C  0.98287283  0.98111390  0.69227309     0.10000
C543        C  0.45356471  0.96448745  0.68387011    -0.12100
C544        C  0.45375817  0.96335375  0.66676241    -0.12100
C545        C  0.98344487  0.97879141  0.65761596     0.10000
C546        C  0.04059378  0.52838061  0.66888615    -0.12100
H547        H  0.06054264  0.54118231  0.69362167     0.14000
H548        H  0.42621671  0.95169116  0.69018024     0.14000
H549        H  0.42653393  0.94926813  0.66038087     0.14000
H550        H  0.06941954  0.54466186  0.66396568     0.14000
C551        C  0.33968381  0.87976235  0.81322585    -0.15200
C552        C  0.32098463  0.84101225  0.81187771    -0.30400
H553        H  0.33831764  0.89237294  0.82480214     0.13800
H554        H  0.32060833  0.82760677  0.80029341     0.14400
C555        C  0.12960299  0.66618744  0.81236908    -0.15200
C556        C  0.09104943  0.64994791  0.81357006    -0.30400
H557        H  0.14242230  0.66460609  0.80091914     0.13800
H558        H  0.07875576  0.65264654  0.82499448     0.14400
C559        C  0.01173742  0.51836230  0.99959007    -0.12100
C560        C  0.99216376  0.48385902  0.99064351     0.10000
C561        C  0.48347492  0.94850388  0.00009115    -0.12100
C562        C  0.48527139  0.94734936  0.01719282    -0.12100
C563        C  0.99525429  0.48277674  0.02530812     0.10000
C564        C  0.01293870  0.51784345  0.01672172    -0.12100
H565        H  0.02599952  0.54584414  0.99336042     0.14000
H566        H  0.46961647  0.92161649  0.99339585     0.14000
H567        H  0.47231999  0.91962278  0.02321010     0.14000
H568        H  0.02847228  0.54490567  0.02322219     0.14000
C569        C  0.34699677  0.86676053  0.87301523    -0.15200
C570        C  0.33098656  0.82833134  0.87137539    -0.30400
H571        H  0.34025502  0.88227920  0.86395233     0.13800
H572        H  0.33730833  0.81191150  0.88010152     0.14400
C573        C  0.14582497  0.64685401  0.87090457    -0.15200
C574        C  0.12770622  0.60831431  0.86910147    -0.30400
H575        H  0.14520645  0.65940337  0.88258700     0.13800
H576        H  0.12922820  0.59661184  0.85730734     0.14400
N577        N  0.92326791  0.41313748  0.90257067    -0.26100
N578        N  0.94446300  0.42820812  0.88934770    -0.33900
C579        C  0.92275754  0.41261884  0.87601324     0.02300
C580        C  0.88611482  0.38573957  0.88090172     0.08300
C581        C  0.88719442  0.38681879  0.89788660    -0.04800
H582        H  0.93236006  0.42194444  0.86362285     0.09000
H583        H  0.86302527  0.37203423  0.90611592     0.10200
Cu584      Cu  0.49815161  0.46584053  0.89028041     0.44200
Cu585      Cu  0.94559914  0.43573392  0.92568679     0.42000
Cu586      Cu  0.53580131  0.04001173  0.92709650     0.43900
N587        N  0.53417688  0.04554621  0.89089764    -0.33500
N588        N  0.55525381  0.06390064  0.90375040    -0.27700
C589        C  0.58852026  0.09449918  0.89839883    -0.03800
C590        C  0.58790157  0.09439590  0.88135778     0.08400
C591        C  0.55314859  0.06293067  0.87719264     0.02200
H592        H  0.61204232  0.11388251  0.90619661     0.09800
H593        H  0.54269447  0.05276770  0.86497019     0.08900
N594        N  0.50927922  0.00520918  0.94772695    -0.34900
N595        N  0.97546000  0.46713924  0.94646215    -0.27100
C596        C  0.96507762  0.45604105  0.96207240    -0.02300
C597        C  0.99456052  0.98124758  0.97262242     0.06300
C598        C  0.52097285  0.01552295  0.96328229     0.04400
H599        H  0.93990861  0.42930744  0.96559598     0.09500
H600        H  0.54515431  0.04302860  0.96677261     0.08300
N601        N  0.53651268  0.07708673  0.77765227    -0.26100
N602        N  0.50933599  0.06872165  0.78866826    -0.33900
C603        C  0.52381459  0.09419740  0.80098320     0.02300
C604        C  0.56215534  0.11979203  0.79785528     0.08300
C605        C  0.56940321  0.10811555  0.78288995    -0.04800
H606        H  0.50819177  0.09260915  0.81201858     0.09000
H607        H  0.59668404  0.12032650  0.77657542     0.10200
Cu608      Cu  0.44827935  0.52042957  0.78879611     0.44200
Cu609      Cu  0.52553748  0.04338276  0.75656561     0.42000
Cu610      Cu  0.92966604  0.46273425  0.75557488     0.43900
N611        N  0.90675138  0.47234152  0.78948490    -0.33500
N612        N  0.89811858  0.44709258  0.77752482    -0.27700
C613        C  0.86888825  0.41255330  0.78255972    -0.03800
C614        C  0.85870868  0.41669376  0.79839938     0.08400
C615        C  0.88329022  0.45494565  0.80222078     0.02200
H616        H  0.85697497  0.38627081  0.77548047     0.09800
H617        H  0.88553213  0.46865552  0.81389232     0.08900
N618        N  0.96748840  0.48969229  0.73585472    -0.34900
N619        N  0.50117782  0.00663686  0.73640535    -0.27100
C620        C  0.51415620  0.01410052  0.72086223    -0.02300
C621        C  0.48437875  0.49561673  0.71007919     0.06300
C622        C  0.96147501  0.47873141  0.72002465     0.04400
H623        H  0.53993456  0.03993891  0.71703088     0.09500
H624        H  0.93582351  0.45372062  0.71552132     0.08300
N625        N  0.58086629  0.02811672  0.44531782    -0.26100
N626        N  0.54353757  0.44990190  0.46122959    -0.33900
C627        C  0.56108900  0.44725916  0.47469166     0.02300
C628        C  0.59888809  0.45900790  0.47088988     0.08300
C629        C  0.61242253  0.02726691  0.45034223    -0.04800
H630        H  0.54781921  0.43930355  0.48664717     0.09000
H631        H  0.62819469  0.01741972  0.44297571     0.10200
Cu632      Cu  0.48876652  0.44248694  0.45977402     0.44200
Cu633      Cu  0.55269386  0.01296206  0.42293061     0.42000
Cu634      Cu  0.95653766  0.00408629  0.41900268     0.43900
N635        N  0.94203309  0.45168338  0.45949813    -0.33500
N636        N  0.93557094  0.01247219  0.44122215    -0.27700
C637        C  0.89955487  0.00393030  0.44540077    -0.03800
C638        C  0.89225254  0.45660466  0.46786370     0.08400
C639        C  0.91862585  0.44577948  0.47221311     0.02200
H640        H  0.87510520  0.99093907  0.43725540     0.09800
H641        H  0.92195328  0.43627491  0.48415897     0.08900
N642        N  0.98559782  0.99575150  0.39947459    -0.34900
N643        N  0.52139397  0.00512052  0.40163202    -0.27100
C644        C  0.53226587  0.00064243  0.38661932    -0.02300
C645        C  0.50577926  0.99886648  0.37536876     0.06300
C646        C  0.97555108  0.99185935  0.38356357     0.04400
H647        H  0.55835495  0.00002161  0.38405955     0.09500
H648        H  0.95075976  0.99263501  0.37894891     0.08300
N649        N  0.96398185  0.52919750  0.56876341    -0.26100
N650        N  0.98852217  0.53886408  0.55649372    -0.33900
C651        C  0.97288224  0.54429602  0.54302471     0.02300
C652        C  0.93648679  0.53740329  0.54678976     0.08300
C653        C  0.93154944  0.52773481  0.56328208    -0.04800
H654        H  0.98645273  0.55119762  0.53111270     0.09000
H655        H  0.90631252  0.51982939  0.57066119     0.10200
Cu656      Cu  0.54497140  0.54781566  0.55789271     0.44200
Cu657      Cu  0.97846352  0.51900442  0.59198293     0.42000
Cu658      Cu  0.57525970  0.52510696  0.59551543     0.43900
N659        N  0.59352563  0.54240048  0.55969440    -0.33500
N660        N  0.60463766  0.53296456  0.57326113    -0.27700
C661        C  0.63251684  0.52477708  0.56941565    -0.03800
C662        C  0.63952845  0.52989707  0.55269257     0.08400
C663        C  0.61386508  0.54056796  0.54702727     0.02200
H664        H  0.64407234  0.51240136  0.57783096     0.09800
H665        H  0.60763060  0.54287481  0.53435191     0.08900
N666        N  0.53707495  0.51545637  0.61497619    -0.34900
N667        N  0.00382340  0.51597955  0.61379384    -0.27100
C668        C  0.98831950  0.51203322  0.62876803    -0.02300
C669        C  0.51025314  0.50547303  0.63971876     0.06300
C670        C  0.54300024  0.51268869  0.63103855     0.04400
H671        H  0.96057890  0.50934666  0.63108018     0.09500
H672        H  0.56919670  0.51552305  0.63601698     0.08300
N673        N  0.49903485  0.40739746  0.11251586    -0.26100
N674        N  0.49005279  0.41938503  0.12596635    -0.33900
C675        C  0.49559947  0.40245135  0.13897277     0.02300
C676        C  0.50818031  0.37806102  0.13358593     0.08300
C677        C  0.51040659  0.38205881  0.11669189    -0.04800
H678        H  0.49397184  0.41000323  0.15153792     0.09000
H679        H  0.52273707  0.37034303  0.10828842     0.10200
Cu680      Cu  0.49751293  0.97484487  0.12771581     0.44200
Cu681      Cu  0.50170550  0.43333594  0.09005179     0.42000
Cu682      Cu  0.50808065  0.02773127  0.09175866     0.43900
N683        N  0.49591446  0.02559070  0.12775538    -0.33500
N684        N  0.50229146  0.04735595  0.11471553    -0.27700
C685        C  0.50297368  0.08012471  0.11934370    -0.03800
C686        C  0.49597233  0.07807703  0.13607916     0.08400
C687        C  0.49150688  0.04310751  0.14085836     0.02200
H688        H  0.50807064  0.10343897  0.11120296     0.09800
H689        H  0.48695742  0.03186633  0.15318126     0.08900
N690        N  0.50625098  0.99688697  0.07075681    -0.34900
N691        N  0.50459774  0.46696666  0.06999041    -0.30100
C692        C  0.50244237  0.45643176  0.05422129    -0.02300
C693        C  0.50547439  0.48589840  0.04437047     0.06300
C694        C  0.50727498  0.00898249  0.05532841     0.04400
H695        H  0.49894439  0.42914376  0.05023004     0.09500
H696        H  0.50967055  0.03628040  0.05220307     0.08300
N697        N  0.55834885  0.07613165  0.23651857    -0.26100
N698        N  0.57629217  0.06706097  0.22536785    -0.33900
C699        C  0.58512842  0.09090198  0.21255626     0.02300
C700        C  0.57197811  0.11619973  0.21562772     0.08300
C701        C  0.55501455  0.10603191  0.23099070    -0.04800
H702        H  0.59810432  0.08846858  0.20134791     0.09000
H703        H  0.54018372  0.11837655  0.23740170     0.10200
Cu704      Cu  0.58210378  0.01863516  0.22676309     0.44200
Cu705      Cu  0.53854695  0.04473197  0.25810021     0.42000
Cu706      Cu  0.55331882  0.45546146  0.26133652     0.43900
N707        N  0.58017829  0.46648580  0.22660493    -0.33500
N708        N  0.56710776  0.44106323  0.23861125    -0.27700
C709        C  0.56325372  0.40751695  0.23298591    -0.03800
C710        C  0.57479033  0.41256924  0.21667534     0.08400
C711        C  0.58539584  0.45029670  0.21320817     0.02200
H712        H  0.55172122  0.38123568  0.24002805     0.09800
H713        H  0.59412013  0.46433410  0.20142900     0.08900
N714        N  0.54147708  0.47913690  0.28196640    -0.34900
N715        N  0.52821179  0.01127425  0.27899504    -0.27100
C716        C  0.52135922  0.02029955  0.29399692    -0.02300
C717        C  0.51933655  0.99317724  0.30500350     0.06300
C718        C  0.53710892  0.46575261  0.29738867     0.04400
H719        H  0.51951493  0.04569581  0.29676420     0.09500
H720        H  0.53921345  0.44087649  0.30085093     0.08300
C721        C  0.54435134  0.32091196  0.19063299    -0.09600
C722        C  0.53366396  0.33239071  0.17631806    -0.03500
C723        C  0.52483709  0.31130807  0.16169913    -0.09600
C724        C  0.52555488  0.27635503  0.16144417     0.11300
C725        C  0.53502329  0.26324534  0.17590520    -0.01400
C726        C  0.54435761  0.28549812  0.19054459     0.11100
C727        C  0.55386135  0.27188975  0.20458574    -0.11400
C728        C  0.55360825  0.23697304  0.20443877    -0.11400
C729        C  0.54410282  0.21429855  0.19021420     0.11100
C730        C  0.53511179  0.22772144  0.17571218    -0.01400
C731        C  0.51729397  0.25425851  0.14707847    -0.11600
C732        C  0.51738913  0.21958224  0.14689410    -0.11600
C733        C  0.52610672  0.20567367  0.16102243     0.11300
C734        C  0.52541633  0.16999874  0.16097409    -0.09600
C735        C  0.53481357  0.15778176  0.17538872    -0.03500
C736        C  0.54420695  0.17900935  0.18994999    -0.09600
H737        H  0.56178472  0.28820545  0.21585361     0.08600
H738        H  0.56137755  0.22812653  0.21559793     0.08600
H739        H  0.51078257  0.26359031  0.13574176     0.08800
H740        H  0.51033446  0.20365227  0.13552984     0.08800
H741        H  0.53054367  0.35765865  0.17679380     0.05200
H742        H  0.53463447  0.13070827  0.17529123     0.05200
C743        C  0.65096956  0.18504291  0.82438341    -0.09600
C744        C  0.63715410  0.16577704  0.83932746    -0.03500
C745        C  0.65777776  0.17888817  0.85400072    -0.09600
C746        C  0.69412193  0.21314456  0.85372956     0.11300
C747        C  0.70890368  0.23352188  0.83875890    -0.01400
C748        C  0.68720755  0.21953938  0.82407637     0.11100
C749        C  0.70191882  0.24099800  0.80961946    -0.11400
C750        C  0.73729475  0.27526997  0.80944126    -0.11400
C751        C  0.75978366  0.28920031  0.82364849     0.11100
C752        C  0.74548176  0.26805623  0.83849308    -0.01400
C753        C  0.71636394  0.22726964  0.86797256    -0.11600
C754        C  0.75220520  0.26073886  0.86768679    -0.11600
C755        C  0.76746738  0.28152668  0.85313141     0.11300
C756        C  0.80392719  0.31562273  0.85284679    -0.09600
C757        C  0.81763516  0.33523588  0.83798657    -0.03500
C758        C  0.79592712  0.32389407  0.82355875    -0.09600
H759        H  0.68588029  0.23177485  0.79831170     0.08600
H760        H  0.74687549  0.29074655  0.79800290     0.08600
H761        H  0.70640070  0.21240299  0.87952521     0.08800
H762        H  0.76769143  0.27025389  0.87910616     0.08800
H763        H  0.60941984  0.13967896  0.83952963     0.05200
H764        H  0.84653926  0.35972185  0.83749337     0.05200
C765        C  0.70693007  0.51700168  0.52325601    -0.09600
C766        C  0.68418144  0.50674388  0.50915543    -0.03500
C767        C  0.69357226  0.49399704  0.49482029    -0.09600
C768        C  0.72852699  0.49330859  0.49424022     0.11300
C769        C  0.75261544  0.50428735  0.50829590    -0.01400
C770        C  0.74178590  0.51617160  0.52282196     0.11100
C771        C  0.76582482  0.52633057  0.53657767    -0.11400
C772        C  0.79974253  0.52486788  0.53621073    -0.11400
C773        C  0.81101345  0.51303035  0.52209231     0.11100
C774        C  0.78744760  0.50298454  0.50789038    -0.01400
C775        C  0.73977830  0.48133475  0.48013456    -0.11600
C776        C  0.77413391  0.48062021  0.47966008    -0.11600
C777        C  0.79847295  0.49139824  0.49332949     0.11300
C778        C  0.83300091  0.48990180  0.49303313    -0.09600
C779        C  0.85556854  0.50000841  0.50720482    -0.03500
C780        C  0.84549274  0.51151866  0.52169292    -0.09600
H781        H  0.75850984  0.53527934  0.54785685     0.08600
H782        H  0.81716371  0.53332585  0.54715021     0.08600
H783        H  0.72200325  0.47214282  0.46930201     0.08800
H784        H  0.78119387  0.47097710  0.46850171     0.08800
H785        H  0.65888061  0.50978495  0.50920673     0.05200
H786        H  0.88180228  0.49869099  0.50695406     0.05200
C787        C  0.55178505  0.16175000  0.20470538    -0.15200
C788        C  0.57178516  0.14312334  0.20334881    -0.30400
H789        H  0.04004682  0.16124088  0.21551588     0.13800
H790        H  0.58632651  0.14493909  0.19188815     0.14400
C791        C  0.55303352  0.34601753  0.20552528    -0.15200
C792        C  0.57246839  0.38476785  0.20409105    -0.30400
H793        H  0.54103076  0.33285999  0.21726167     0.13800
H794        H  0.58498820  0.39723477  0.19229884     0.14400
C795        C  0.49553622  0.10615228  0.14769390    -0.15200
C796        C  0.51647213  0.14477805  0.14615087    -0.30400
H797        H  0.99190354  0.09698009  0.15811874     0.13800
H798        H  0.53063409  0.15750120  0.13464505     0.14400
C799        C  0.51187681  0.32519322  0.14738974    -0.15200
C800        C  0.52714058  0.36297049  0.14420556    -0.30400
H801        H  0.99303314  0.30604128  0.13830225     0.13800
H802        H  0.55119630  0.38401153  0.15142135     0.14400
C803        C  0.87100290  0.51957808  0.53628739    -0.15200
C804        C  0.90950174  0.53740971  0.53452484    -0.30400
H805        H  0.85805882  0.50778479  0.54808168     0.13800
H806        H  0.88853368  0.03303127  0.52919563     0.14400
C807        C  0.69378360  0.53018533  0.53781753    -0.15200
C808        C  0.65637058  0.51221318  0.54214806    -0.30400
H809        H  0.71417276  0.55644406  0.54408428     0.13800
H810        H  0.63607488  0.48607533  0.53577224     0.14400
C811        C  0.53549256  0.46507371  0.35221036    -0.12100
C812        C  0.50752722  0.99577683  0.35734263     0.10000
C813        C  0.49091223  0.01126874  0.34697232    -0.12100
C814        C  0.49462528  0.01027551  0.32997633    -0.12100
C815        C  0.51432691  0.99305858  0.32298444     0.10000
C816        C  0.53886660  0.46656394  0.33514176    -0.12100
H817        H  0.54701371  0.45004877  0.35903201     0.14000
H818        H  0.47591094  0.02506640  0.35199221     0.14000
H819        H  0.48196872  0.02291661  0.32229866     0.14000
H820        H  0.55335492  0.45308295  0.32934132     0.14000
C821        C  0.86499740  0.45810334  0.47967645    -0.15200
C822        C  0.84804092  0.47967346  0.47814959    -0.30400
H823        H  0.86258342  0.44407403  0.49133004     0.13800
H824        H  0.84911990  0.49334448  0.46656725     0.14400
C825        C  0.62809409  0.46396731  0.48313536    -0.15200
C826        C  0.66644165  0.48313407  0.48064597    -0.30400
H827        H  0.61722245  0.45342956  0.49534196     0.13800
H828        H  0.67785059  0.49299755  0.46846411     0.14400
C829        C  0.52305339  0.99936867  0.68397678    -0.12100
C830        C  0.49082765  0.49636386  0.69207110     0.10000
C831        C  0.96672268  0.48714073  0.68225841    -0.12100
C832        C  0.97183458  0.48957977  0.66525878    -0.12100
C833        C  0.50366918  0.50134801  0.65773540     0.10000
C834        C  0.52324586  0.99750572  0.66684055    -0.12100
H835        H  0.55019159  0.01352025  0.69042973     0.14000
H836        H  0.93782664  0.47120068  0.68711800     0.14000
H837        H  0.94677393  0.47502815  0.65749031     0.14000
H838        H  0.55054717  0.01062647  0.66048539     0.14000
C839        C  0.83228584  0.38793485  0.81048560    -0.15200
C840        C  0.81327308  0.34918662  0.80878242    -0.30400
H841        H  0.83088640  0.39980442  0.82225538     0.13800
H842        H  0.81296392  0.33633191  0.79706042     0.14400
C843        C  0.62734791  0.16648814  0.80935453    -0.15200
C844        C  0.58858816  0.14840613  0.80993148    -0.30400
H845        H  0.64159472  0.16447519  0.79842393     0.13800
H846        H  0.57496824  0.15181212  0.82079495     0.14400
C847        C  0.51774838  0.01808306  0.00096491    -0.12100
C848        C  0.49969678  0.98390692  0.99176142     0.10000
C849        C  0.97367604  0.44885469  0.99926987    -0.12100
C850        C  0.97550239  0.44830619  0.01637171    -0.12100
C851        C  0.50277680  0.98156726  0.02639407     0.10000
C852        C  0.51903633  0.01692055  0.01805192    -0.12100
H853        H  0.53037467  0.04584525  0.99499794     0.14000
H854        H  0.95845470  0.42173326  0.99279679     0.14000
H855        H  0.96125170  0.42082490  0.02260508     0.14000
H856        H  0.53305499  0.04384472  0.02471664     0.14000
C857        C  0.85262056  0.36901476  0.86987865    -0.15200
C858        C  0.82967165  0.33085811  0.86752951    -0.30400
H859        H  0.85051288  0.38910200  0.86166269     0.13800
H860        H  0.83226788  0.31086568  0.87562348     0.14400
C861        C  0.63910648  0.15676013  0.86938618    -0.15200
C862        C  0.61757695  0.11802189  0.86911726    -0.30400
H863        H  0.63962988  0.17233778  0.88033952     0.13800
H864        H  0.61725486  0.10286244  0.85805079     0.14400
N865        N  0.91972434  0.90675648  0.90402313    -0.26100
N866        N  0.93860614  0.92396198  0.89052960    -0.33900
C867        C  0.91590019  0.90744546  0.87755341     0.02300
C868        C  0.88111137  0.87774719  0.88291581     0.08300
C869        C  0.88422770  0.87801834  0.89984667    -0.04800
H870        H  0.92361045  0.91746955  0.86509703     0.09000
H871        H  0.86168684  0.86058523  0.90845570     0.10200
Cu872      Cu  0.48181230  0.99570935  0.89210822     0.44200
Cu873      Cu  0.94396785  0.92919272  0.92691810     0.42000
Cu874      Cu  0.53908486  0.52619353  0.92539613     0.43900
N875        N  0.54893903  0.51808910  0.88957867    -0.33500
N876        N  0.56325161  0.54211286  0.90206481    -0.27700
C877        C  0.59330197  0.57559550  0.89671199    -0.03800
C878        C  0.59803007  0.57185869  0.88010488     0.08400
C879        C  0.56958391  0.53506900  0.87612400     0.02200
H880        H  0.60986153  0.60079627  0.90424018     0.09800
H881        H  0.56292657  0.52230201  0.86405239     0.08900
N882        N  0.51038012  0.49848982  0.94692603    -0.34900
N883        N  0.97543970  0.96240075  0.94706926    -0.27100
C884        C  0.96812516  0.95144464  0.96286088    -0.02300
C885        C  0.99150124  0.48428875  0.97243152     0.06300
C886        C  0.52241225  0.51092482  0.96228298     0.04400
H887        H  0.94505084  0.92380500  0.96692672     0.09500
H888        H  0.54846928  0.53743413  0.96521444     0.08300
N889        N  0.52985237  0.57624457  0.77911792    -0.26100
N890        N  0.50319169  0.56801318  0.79033846    -0.33900
C891        C  0.51912303  0.59141436  0.80324407     0.02300
C892        C  0.55786744  0.61548222  0.80017506     0.08300
C893        C  0.56379429  0.60507418  0.78469130    -0.04800
H894        H  0.50412005  0.58933631  0.81453291     0.09000
H895        H  0.59082873  0.61646601  0.77823500     0.10200
Cu896      Cu  0.45582953  0.01888473  0.78843247     0.44200
Cu897      Cu  0.51636762  0.54476801  0.75745573     0.42000
Cu898      Cu  0.92911948  0.94353376  0.75685485     0.43900
N899        N  0.90678085  0.95565442  0.79013084    -0.33500
N900        N  0.89829564  0.92922929  0.77873918    -0.27700
C901        C  0.86955159  0.89508189  0.78427872    -0.03800
C902        C  0.85954884  0.90074638  0.79989420     0.08400
C903        C  0.88370046  0.93941826  0.80307463     0.02200
H904        H  0.85780204  0.86815203  0.77767777     0.09800
H905        H  0.88583404  0.95427486  0.81441875     0.08900
N906        N  0.96331607  0.96965928  0.73631556    -0.34900
N907        N  0.49264412  0.51233579  0.73632021    -0.27100
C908        C  0.50906167  0.52198912  0.72144194    -0.02300
C909        C  0.48772572  0.98494401  0.71082778     0.06300
C910        C  0.95374303  0.95699058  0.72084163     0.04400
H911        H  0.53664842  0.54726050  0.71903914     0.09500
H912        H  0.92739456  0.93128091  0.71741581     0.08300
N913        N  0.56825343  0.46249957  0.44896440    -0.26100
N914        N  0.56782725  0.03996920  0.45752855    -0.33900
C915        C  0.59089537  0.04762071  0.47051023     0.02300
C916        C  0.61958313  0.03966448  0.46647242     0.08300
C917        C  0.60259324  0.46856325  0.45439813    -0.04800
H918        H  0.58570983  0.05597934  0.48240646     0.09000
H919        H  0.62840822  0.48010908  0.44704769     0.10200
Cu920      Cu  0.51569122  0.03893871  0.45699958     0.44200
Cu921      Cu  0.55190259  0.47198477  0.42603017     0.42000
Cu922      Cu  0.96178178  0.47822525  0.42473331     0.43900
N923        N  0.95724751  0.02375663  0.45447674    -0.33500
N924        N  0.93167109  0.46538069  0.44703872    -0.27700
C925        C  0.90132583  0.46909283  0.45174082    -0.03800
C926        C  0.89885321  0.01052779  0.46205403     0.08400
C927        C  0.93578021  0.02245998  0.46733471     0.02200
H928        H  0.88757076  0.48073935  0.44416588     0.09800
H929        H  0.94562204  0.02715605  0.47987660     0.08900
N930        N  0.99622717  0.48305485  0.40441487    -0.34900
N931        N  0.52611507  0.47716662  0.40476975    -0.27100
C932        C  0.53899343  0.47821031  0.38946976    -0.02300
C933        C  0.51445024  0.48131926  0.37851932     0.06300
C934        C  0.98874367  0.48641371  0.38860927     0.04400
H935        H  0.56451845  0.47681071  0.38655347     0.09500
H936        H  0.96396777  0.48789248  0.38449451     0.08300
N937        N  0.91884796  0.98521728  0.56971161    -0.26100
N938        N  0.93951924  0.98852908  0.55661476    -0.33900
C939        C  0.92485334  0.99684517  0.54361173     0.02300
C940        C  0.89277801  0.99816057  0.54852285     0.08300
C941        C  0.88951318  0.99064615  0.56521593    -0.04800
H942        H  0.93702046  0.00205597  0.53143503     0.09000
H943        H  0.86875523  0.99105571  0.57352531     0.10200
Cu944      Cu  0.47911247  0.96619635  0.55696236     0.44200
Cu945      Cu  0.93731406  0.97790504  0.59264528     0.42000
Cu946      Cu  0.53504927  0.97912784  0.59262929     0.43900
N947        N  0.53071882  0.96661070  0.55642433    -0.33500
N948        N  0.55340978  0.97350621  0.56917187    -0.27700
C949        C  0.58618237  0.97498671  0.56394867    -0.03800
C950        C  0.58316531  0.96805918  0.54716419     0.08400
C951        C  0.54764997  0.96281048  0.54298885     0.02200
H952        H  0.61010917  0.98042586  0.57172822     0.09800
H953        H  0.53541377  0.95780285  0.53084740     0.08900
N954        N  0.50498635  0.97929846  0.61376301    -0.34900
N955        N  0.96743314  0.97692202  0.61337452    -0.27100
C956        C  0.95581299  0.97603918  0.62890951    -0.02300
C957        C  0.48848443  0.97898349  0.63982456     0.06300
C958        C  0.51652634  0.98064380  0.62935836     0.04400
H959        H  0.92935183  0.97515280  0.63227813     0.09500
H960        H  0.54321619  0.98219555  0.63281854     0.08300
N961        N  0.50490184  0.90908230  0.11381541    -0.26100
N962        N  0.50468023  0.92723633  0.12727146    -0.33900
C963        C  0.51226061  0.91155363  0.14017033     0.02300
C964        C  0.51668606  0.88139230  0.13480671     0.08300
C965        C  0.51200531  0.88055870  0.11794954    -0.04800
H966        H  0.51568567  0.92226011  0.15256424     0.09000
H967        H  0.51602535  0.86244148  0.10930571     0.10200
Cu968      Cu  0.48049525  0.46533278  0.12657945     0.44200
Cu969      Cu  0.50090378  0.92988841  0.09083584     0.42000
Cu970      Cu  0.50889678  0.53001706  0.09249954     0.43900
N971        N  0.48687613  0.51962214  0.12803166    -0.33500
N972        N  0.49964948  0.54512237  0.11603967    -0.27700
C973        C  0.50437195  0.57881808  0.12191828    -0.03800
C974        C  0.49360262  0.57367820  0.13832380     0.08400
C975        C  0.48272744  0.53587211  0.14163494     0.02200
H976        H  0.51505214  0.60498400  0.11485562     0.09800
H977        H  0.47385534  0.52154128  0.15335087     0.08900
N978        N  0.50855780  0.50179625  0.07069053    -0.34900
N979        N  0.50237091  0.96205714  0.07033841    -0.30100
C980        C  0.50049031  0.95123079  0.05458741    -0.02300
C981        C  0.50363343  0.98059455  0.04458272     0.06300
C982        C  0.50953034  0.51429977  0.05527508     0.04400
H983        H  0.49753662  0.92408539  0.05072291     0.09500
H984        H  0.51167837  0.54154011  0.05224167     0.08300
N985        N  0.56057622  0.57645154  0.23983052    -0.26100
N986        N  0.57709727  0.56774091  0.22788941    -0.33900
C987        C  0.58395712  0.59161329  0.21526412     0.02300
C988        C  0.57083948  0.61651856  0.21916962     0.08300
C989        C  0.55601417  0.60613131  0.23491345    -0.04800
H990        H  0.59561421  0.58948047  0.20362701     0.09000
H991        H  0.54206529  0.61838260  0.24203988     0.10200
Cu992      Cu  0.58429152  0.52005473  0.22785321     0.44200
Cu993      Cu  0.54490686  0.54487649  0.26164556     0.42000
Cu994      Cu  0.54110111  0.95294625  0.26015155     0.43900
N995        N  0.57408692  0.96341246  0.22646734    -0.33500
N996        N  0.55710361  0.93781483  0.23824306    -0.27700
C997        C  0.55156781  0.90338017  0.23300780    -0.03800
C998        C  0.56615088  0.90801094  0.21721847     0.08400
C999        C  0.58020144  0.94637687  0.21361396     0.02200
H1000       H  0.53690640  0.87689179  0.23992282     0.09800
H1001       H  0.59192460  0.96041806  0.20203097     0.08900
N1002       N  0.53025420  0.97937788  0.27992815    -0.34900
N1003       N  0.53750979  0.51001857  0.28197895    -0.27100
C1004       C  0.53016361  0.51660798  0.29737085    -0.02300
C1005       C  0.52977687  0.48894664  0.30765317     0.06300
C1006       C  0.52521130  0.96772050  0.29563389     0.04400
H1007       H  0.52662504  0.54064945  0.30088067     0.09500
H1008       H  0.52599020  0.94262965  0.29991185     0.08300
C1009       C  0.53531238  0.81536990  0.19209832    -0.09600
C1010       C  0.52640370  0.82689378  0.17737853    -0.03500
C1011       C  0.52023726  0.80646433  0.16271793    -0.09600
C1012       C  0.51988825  0.77089997  0.16307085     0.11300
C1013       C  0.52777353  0.75782738  0.17798533    -0.01400
C1014       C  0.53571322  0.78024645  0.19250534     0.11100
C1015       C  0.54444887  0.76723455  0.20693080    -0.11400
C1016       C  0.54499062  0.73275116  0.20726402    -0.11400
C1017       C  0.53681203  0.70982238  0.19318789     0.11100
C1018       C  0.52823057  0.72248177  0.17833865    -0.01400
C1019       C  0.51224700  0.74821015  0.14894868    -0.11600
C1020       C  0.51213098  0.71337787  0.14934930    -0.11600
C1021       C  0.52042174  0.70008009  0.16381379     0.11300
C1022       C  0.52070357  0.66482859  0.16423471    -0.09600
C1023       C  0.52977456  0.65346327  0.17898740    -0.03500
C1024       C  0.53806898  0.67513831  0.19340300    -0.09600
H1025       H  0.55129642  0.78378451  0.21811912     0.08600
H1026       H  0.55224326  0.72438819  0.21868461     0.08600
H1027       H  0.50624255  0.75715146  0.13739172     0.08800
H1028       H  0.50548660  0.69700088  0.13812470     0.08800
H1029       H  0.52343889  0.85228301  0.17743841     0.05200
H1030       H  0.53076428  0.62700150  0.17926694     0.05200
C1031       C  0.64947170  0.67418483  0.82612204    -0.09600
C1032       C  0.63632249  0.65333288  0.84072506    -0.03500
C1033       C  0.65800355  0.66444728  0.85514674    -0.09600
C1034       C  0.69397382  0.69901890  0.85525092     0.11300
C1035       C  0.70853353  0.72041753  0.84052292    -0.01400
C1036       C  0.68643092  0.70775620  0.82587777     0.11100
C1037       C  0.70159050  0.72949020  0.81153083    -0.11400
C1038       C  0.73778665  0.76267008  0.81141426    -0.11400
C1039       C  0.76021730  0.77568847  0.82566958     0.11100
C1040       C  0.74534642  0.75454275  0.84044510    -0.01400
C1041       C  0.71608907  0.71240615  0.86957517    -0.11600
C1042       C  0.75158735  0.74631917  0.86959868    -0.11600
C1043       C  0.76693613  0.76771539  0.85520278     0.11300
C1044       C  0.80305782  0.80217858  0.85515999    -0.09600
C1045       C  0.81772445  0.82133895  0.84029333    -0.03500
C1046       C  0.79677094  0.80968930  0.82569079    -0.09600
H1047       H  0.68547957  0.72121525  0.80023317     0.08600
H1048       H  0.74784368  0.77828314  0.80002571     0.08600
H1049       H  0.70610397  0.69687511  0.88098112     0.08800
H1050       H  0.76696835  0.75546799  0.88105849     0.08800
H1051       H  0.60856067  0.62718520  0.84082948     0.05200
H1052       H  0.84656596  0.84601600  0.84003993     0.05200
C1053       C  0.67319693  0.99381910  0.52104914    -0.09600
C1054       C  0.66075425  0.00245910  0.50649389    -0.03500
C1055       C  0.68133752  0.01043867  0.49178458    -0.09600
C1056       C  0.71585126  0.00901138  0.49143084     0.11300
C1057       C  0.72975688  0.00118077  0.50607585    -0.01400
C1058       C  0.70857734  0.99394837  0.52094581     0.11100
C1059       C  0.72313497  0.98653741  0.53521528    -0.11400
C1060       C  0.75799123  0.98689370  0.53508424    -0.11400
C1061       C  0.77937250  0.99380132  0.52059405     0.11100
C1062       C  0.76505056  0.00075815  0.50586944    -0.01400
C1063       C  0.73724423  0.01596462  0.47694467    -0.11600
C1064       C  0.77140315  0.01490722  0.47668983    -0.11600
C1065       C  0.78605375  0.00760448  0.49097698     0.11300
C1066       C  0.82079022  0.00640228  0.49077774    -0.09600
C1067       C  0.83445818  0.00018294  0.50555093    -0.03500
C1068       C  0.81506266  0.99472205  0.52047016    -0.09600
H1069       H  0.70777161  0.98050836  0.54669232     0.08600
H1070       H  0.76797309  0.98165488  0.54653432     0.08600
H1071       H  0.72778507  0.02232919  0.46560500     0.08800
H1072       H  0.78620014  0.01989515  0.46511315     0.08800
H1073       H  0.63417596  0.00313135  0.50661152     0.05200
H1074       H  0.86134402  0.00011498  0.50550258     0.05200
C1075       C  0.54675422  0.65932878  0.20838979    -0.15200
C1076       C  0.56935732  0.64346487  0.20723294    -0.30400
H1077       H  0.03074066  0.65568091  0.21843273     0.13800
H1078       H  0.58472977  0.64686376  0.19584471     0.14400
C1079       C  0.54297748  0.84085015  0.20672096    -0.15200
C1080       C  0.56373376  0.87947172  0.20507486    -0.30400
H1081       H  0.52957210  0.82818531  0.21834494     0.13800
H1082       H  0.57776583  0.89131705  0.19343118     0.14400
C1083       C  0.49499907  0.60099855  0.15089807    -0.15200
C1084       C  0.51368240  0.63971470  0.14948055    -0.30400
H1085       H  0.98242158  0.58864764  0.16099402     0.13800
H1086       H  0.52617053  0.65295020  0.13781369     0.14400
C1087       C  0.51256082  0.82295993  0.14764841    -0.15200
C1088       C  0.53120240  0.86142175  0.14522467    -0.30400
H1089       H  0.99457353  0.80572274  0.13743590     0.13800
H1090       H  0.55439920  0.87987894  0.15345356     0.14400
C1091       C  0.83298784  0.98913813  0.53549695    -0.15200
C1092       C  0.87126913  0.00996886  0.53771677    -0.30400
H1093       H  0.81553018  0.96555337  0.54375555     0.13800
H1094       H  0.92202197  0.54975358  0.52272203     0.14400
C1095       C  0.64889520  0.98677572  0.53610136    -0.15200
C1096       C  0.61017922  0.96727688  0.53500569    -0.30400
H1097       H  0.66255627  0.00068750  0.54751440     0.13800
H1098       H  0.59714944  0.95321038  0.52351367     0.14400
C1099       C  0.52699452  0.97832830  0.35033901    -0.12100
C1100       C  0.51724022  0.48244038  0.36035367     0.10000
C1101       C  0.50225259  0.50120261  0.35098867    -0.12100
C1102       C  0.50625980  0.50331726  0.33390716    -0.12100
C1103       C  0.52468808  0.48606503  0.32576351     0.10000
C1104       C  0.53004575  0.97665784  0.33334637    -0.12100
H1105       H  0.53985415  0.96586822  0.35800121     0.14000
H1106       H  0.48812446  0.51494973  0.35689157     0.14000
H1107       H  0.49472790  0.51831768  0.32708040     0.14000
H1108       H  0.54556387  0.96338214  0.32834390     0.14000
C1109       C  0.86520242  0.99580514  0.47308192    -0.15200
C1110       C  0.84540408  0.01431097  0.47578300    -0.30400
H1111       H  0.86066277  0.97234006  0.48109418     0.13800
H1112       H  0.85028054  0.03797990  0.46782756     0.14400
C1113       C  0.64724567  0.03984696  0.47838423    -0.15200
C1114       C  0.66442566  0.01846802  0.47703503    -0.30400
H1115       H  0.64981833  0.05480468  0.48981144     0.13800
H1116       H  0.66258451  0.00367444  0.46565874     0.14400
C1117       C  0.52835897  0.51591797  0.68560684    -0.12100
C1118       C  0.48819348  0.98277427  0.69268149     0.10000
C1119       C  0.94827093  0.96330216  0.68341806    -0.12100
C1120       C  0.94856517  0.96250490  0.66629534    -0.12100
C1121       C  0.48857312  0.97979740  0.65802488     0.10000
C1122       C  0.53470958  0.51811215  0.66868018    -0.12100
H1123       H  0.55299700  0.52956621  0.69364075     0.14000
H1124       H  0.92090158  0.95049977  0.68971120     0.14000
H1125       H  0.92140639  0.94869935  0.65985889     0.14000
H1126       H  0.56395003  0.53376496  0.66417150     0.14000
C1127       C  0.83343683  0.87296330  0.81224295    -0.15200
C1128       C  0.81479510  0.83424814  0.81087472    -0.30400
H1129       H  0.83174114  0.88548419  0.82379213     0.13800
H1130       H  0.81486036  0.82083093  0.79935216     0.14400
C1131       C  0.62438871  0.65802105  0.81130000    -0.15200
C1132       C  0.58580679  0.64137917  0.81254491    -0.30400
H1133       H  0.63726366  0.65665169  0.79983030     0.13800
H1134       H  0.57352584  0.64401795  0.82398537     0.14400
C1135       C  0.51992388  0.51973784  0.00002166    -0.12100
C1136       C  0.49904589  0.48472615  0.99147738     0.10000
C1137       C  0.98611365  0.94783750  0.99959793    -0.12100
C1138       C  0.99116965  0.94889951  0.01658503    -0.12100
C1139       C  0.50315829  0.48584533  0.02618439     0.10000
C1140       C  0.52160861  0.52031782  0.01718931    -0.12100
H1141       H  0.53460610  0.54675995  0.99346031     0.14000
H1142       H  0.97327303  0.92031876  0.99338648     0.14000
H1143       H  0.98155861  0.92207508  0.02304070     0.14000
H1144       H  0.53786414  0.54768527  0.02340857     0.14000
C1145       C  0.84703671  0.85756548  0.87232437    -0.15200
C1146       C  0.82730221  0.81908773  0.87014074    -0.30400
H1147       H  0.84257655  0.87571180  0.86380856     0.13800
H1148       H  0.83198108  0.80061188  0.87835754     0.14400
C1149       C  0.64144346  0.63878225  0.86974340    -0.15200
C1150       C  0.62375154  0.60026314  0.86792068    -0.30400
H1151       H  0.64110258  0.65116875  0.88150549     0.13800
H1152       H  0.62487860  0.58856700  0.85607005     0.14400
loop_ 
_geom_bond_atom_site_label_1 
_geom_bond_atom_site_label_2 
_geom_bond_distance 
_geom_bond_site_symmetry_2 
_ccdc_geom_bond_type 
N1            N2   1.321       .  A
N1            C5   1.355       .  A
N1           Cu9   2.106       .  S
N2            C3   1.342       .  A
N2         Cu584   2.069       .  S
C3            C4   1.380       .  A
C3            H6   1.082       .  S
C4            C5   1.393       .  A
C4          C281   1.481       .  S
C5            H7   1.082       .  S
Cu8         N578   2.062   1_455  S
Cu8         N299   2.062       .  S
Cu9          N19   2.108       .  S
Cu10         N12   2.095       .  S
Cu10         N18   2.097   1_545  S
N11          N12   1.320       .  A
N11          C15   1.340       .  A
N11        Cu296   2.064   1_445  S
N12          C13   1.355       .  A
C13          C14   1.392       .  A
C13          H16   1.082       .  S
C14          C15   1.379       .  A
C14         C286   1.480       .  S
C15          H17   1.082       .  S
N18         N883   1.327   1_455  A
N18          C22   1.346   1_565  A
N19         N882   1.326       .  A
N19          C20   1.348       .  A
C20         C309   1.390       .  A
C20          H23   1.082       .  S
C21         C308   1.387       .  A
C21         C598   1.388   1_565  A
C21         C848   1.490       .  S
C22         C597   1.385   1_445  A
C22          H24   1.082       .  S
N25          N26   1.322       .  A
N25          C29   1.355       .  A
N25         Cu33   2.101       .  S
N26          C27   1.342       .  A
N26        Cu320   2.077   1_455  S
C27          C28   1.382       .  A
C27          H30   1.082       .  S
C28          C29   1.393       .  A
C28         C268   1.486       .  S
C29          H31   1.082       .  S
Cu32        N314   2.082   1_655  S
Cu32        N611   2.083       .  S
Cu33         N43   2.103   1_455  S
Cu34         N36   2.115       .  S
Cu34         N42   2.117       .  S
N35          N36   1.323       .  A
N35          C39   1.341       .  A
N35        Cu608   2.076       .  S
N36          C37   1.358       .  A
C37          C38   1.395       .  A
C37          H40   1.082       .  S
C38          C39   1.380       .  A
C38         C263   1.488       .  S
C39          H41   1.082       .  S
N42         N907   1.326       .  A
N42          C46   1.353       .  A
N43         N906   1.326   1_545  A
N43          C44   1.349   1_655  A
C44         C333   1.388   1_445  A
C44          H47   1.082       .  S
C45         C332   1.385   1_655  A
C45         C622   1.391       .  A
C45         C254   1.490       .  S
C46         C621   1.393       .  A
C46          H48   1.082       .  S
N49         N338   1.321       .  A
N49          C53   1.354       .  A
N49         Cu57   2.091       .  S
N50         N337   1.320       .  A
N50          C51   1.341       .  A
N50         Cu56   2.071   1_455  S
C51          C52   1.381       .  A
C51          H54   1.082       .  S
C52         C341   1.390       .  A
C52         C249   1.479       .  S
C53         C340   1.391       .  A
C53          H55   1.082       .  S
Cu56        N635   2.072       .  S
Cu57         N67   2.092   1_545  S
Cu58         N60   2.095       .  S
Cu58         N66   2.096       .  S
N59         N348   1.322       .  A
N59          C63   1.340       .  A
N59        Cu632   2.073       .  S
N60         N347   1.322       .  A
N60          C61   1.353       .  A
C61         C350   1.389       .  A
C61          H64   1.082   1_545  S
C62          C63   1.380       .  A
C62         C349   1.392       .  A
C62         C245   1.482       .  S
C63          H65   1.082       .  S
N66         N643   1.325       .  A
N66          C70   1.349       .  A
N67         N642   1.326   1_455  A
N67          C68   1.346       .  A
C68          C69   1.386       .  A
C68          H71   1.082       .  S
C69         C646   1.389   1_455  A
C69         C236   1.488       .  S
C70         C645   1.388   1_545  A
C70          H72   1.082       .  S
N73          N74   1.321       .  A
N73          C77   1.352       .  A
N73         Cu81   2.085       .  S
N74          C75   1.342       .  A
N74        Cu656   2.076       .  S
C75          C76   1.382       .  A
C75          H78   1.082       .  S
C76          C77   1.389       .  A
C76         C228   1.480       .  S
C77          H79   1.082       .  S
Cu80         N83   2.073       .  S
Cu80        N650   2.072   1_455  S
Cu81         N91   2.086       .  S
Cu82         N84   2.103       .  S
Cu82         N90   2.105       .  S
N83          N84   1.321       .  A
N83          C87   1.342       .  A
N84          C85   1.355       .  A
C85          C86   1.392       .  A
C85          H88   1.082       .  S
C86          C87   1.381       .  A
C86         C232   1.479       .  S
C87          H89   1.082       .  S
N90         N667   1.327       .  A
N90          C94   1.350       .  A
N91         N666   1.325       .  A
N91          C92   1.346       .  A
C92         C669   1.386       .  A
C92          H95   1.082       .  S
C93          C94   1.389       .  A
C93         C668   1.385   1_455  A
C93         C257   1.488       .  S
C94          H96   1.082       .  S
N97          N98   1.321   1_455  A
N97         C101   1.354       .  A
N97        Cu105   2.097       .  S
N98          C99   1.341   1_655  A
N98        Cu392   2.060       .  S
C99         C100   1.378       .  A
C99         H102   1.082       .  S
C100        C101   1.391       .  A
C100        C224   1.475       .  S
C101        H103   1.082       .  S
Cu104       N107   2.072   1_565  S
Cu104       N386   2.073       .  S
Cu105       N115   2.100       .  S
Cu106       N108   2.092       .  S
Cu106       N114   2.095       .  S
N107        N108   1.321       .  A
N107        C111   1.340       .  A
N108        C109   1.355       .  A
C109        C110   1.391       .  A
C109        H112   1.082       .  S
C110        C111   1.380       .  A
C110        C219   1.480       .  S
C111        H113   1.082   1_455  S
N114        N403   1.326   1_545  A
N114        C118   1.347       .  A
N115        N402   1.326       .  A
N115        C116   1.348   1_455  A
C116        C117   1.388       .  A
C116        H119   1.082       .  S
C117        C406   1.387   1_655  A
C117        C563   1.489       .  S
C118        C405   1.387   1_545  A
C118        H120   1.082       .  S
N121        N122   1.321       .  A
N121        C125   1.353       .  A
N121       Cu129   2.093       .  S
N122        C123   1.342       .  A
N122       Cu128   2.074       .  S
C123        C124   1.381       .  A
C123        H126   1.082       .  S
C124        C125   1.391       .  A
C124        C212   1.481       .  S
C125        H127   1.082       .  S
Cu128       N419   2.074   1_545  S
Cu129       N139   2.096       .  S
Cu130       N132   2.104       .  S
Cu130       N138   2.107       .  S
N131        N132   1.321       .  A
N131        C135   1.341       .  A
N131       Cu416   2.073       .  S
N132        C133   1.357       .  A
C133        C134   1.394       .  A
C133        H136   1.082       .  S
C134        C135   1.380       .  A
C134        C216   1.485       .  S
C135        H137   1.082       .  S
N138        N427   1.327       .  A
N138        C142   1.349       .  A
N139        N426   1.326   1_545  A
N139        C140   1.347       .  A
C140        C141   1.387   1_545  A
C140        H143   1.082       .  S
C141        C430   1.387       .  A
C141        C239   1.487       .  S
C142        C429   1.389       .  A
C142        H144   1.082       .  S
C145        C146   1.404       .  A
C145        C150   1.421       .  A
C145        C215   1.506       .  S
C146        C147   1.404       .  A
C146        H165   1.083       .  S
C147        C148   1.419       .  A
C147        C223   1.502       .  S
C148        C149   1.424       .  A
C148        C155   1.407       .  A
C149        C150   1.426       .  A
C149        C154   1.428       .  A
C150        C151   1.406       .  A
C151        C152   1.396       .  A
C151        H161   1.082       .  S
C152        C153   1.406       .  A
C152        H162   1.082       .  S
C153        C154   1.425       .  A
C153        C160   1.419       .  A
C154        C157   1.427       .  A
C155        C156   1.395       .  A
C155        H163   1.081       .  S
C156        C157   1.404       .  A
C156        H164   1.082       .  S
C157        C158   1.419       .  A
C158        C159   1.402       .  A
C158        C220   1.503       .  S
C159        C160   1.401       .  A
C159        H166   1.083       .  S
C160        C211   1.501       .  S
C167        C168   1.402       .  A
C167        C172   1.422       .  A
C167        C267   1.506       .  S
C168        C169   1.403       .  A
C168        H187   1.082       .  S
C169        C170   1.419       .  A
C169        C285   1.504       .  S
C170        C171   1.426       .  A
C170        C177   1.405       .  A
C171        C172   1.427       .  A
C171        C176   1.430       .  A
C172        C173   1.406       .  A
C173        C174   1.397       .  A
C173        H183   1.082       .  S
C174        C175   1.407       .  A
C174        H184   1.082       .  S
C175        C176   1.426       .  A
C175        C182   1.422       .  A
C176        C179   1.426       .  A
C177        C178   1.395       .  A
C177        H185   1.082       .  S
C178        C179   1.407       .  A
C178        H186   1.081       .  S
C179        C180   1.422       .  A
C180        C181   1.405       .  A
C180        C282   1.507       .  S
C181        C182   1.405       .  A
C181        H188   1.083       .  S
C182        C264   1.508       .  S
C189        C190   1.402       .  A
C189        C194   1.421       .  A
C189        C231   1.505       .  S
C190        C191   1.402       .  A
C190        H209   1.083       .  S
C191        C192   1.418       .  A
C191        C250   1.500       .  S
C192        C193   1.425       .  A
C192        C199   1.407       .  A
C193        C194   1.427       .  A
C193        C198   1.428       .  A
C194        C195   1.405       .  A
C195        C196   1.396       .  A
C195        H205   1.082       .  S
C196        C197   1.407       .  A
C196        H206   1.082       .  S
C197        C198   1.425       .  A
C197        C204   1.420       .  A
C198        C201   1.427       .  A
C199        C200   1.395       .  A
C199        H207   1.082       .  S
C200        C201   1.405       .  A
C200        H208   1.082       .  S
C201        C202   1.419       .  A
C202        C203   1.401       .  A
C202        C246   1.502       .  S
C203        C204   1.402       .  A
C203        H210   1.083       .  S
C204        C227   1.501       .  S
C211        C212   1.350       .  D
C211        H789   1.085       .  S
C212        H214   1.087       .  S
H213        C787   1.085       .  S
C215        C216   1.350       .  D
C215        H217   1.085       .  S
C216        H218   1.087       .  S
C219        C220   1.350       .  D
C219        H797   1.087   1_455  S
C220        H222   1.086       .  S
H221        C795   1.087       .  S
C223        C224   1.347       .  D
C223        H801   1.086   1_455  S
C224        H226   1.086       .  S
H225        C799   1.086       .  S
C227        C228   1.350       .  D
C227        H229   1.085       .  S
C228        H518   1.087       .  S
H230        C516   1.086       .  S
C231        C232   1.351       .  D
C231        H233   1.086       .  S
C232        H234   1.086       .  S
C235        C240   1.401       .  A
C235        C524   1.406       .  A
C235        H241   1.082       .  S
C236        C237   1.406   1_465  A
C236        C523   1.407       .  A
C237        C238   1.402       .  A
C237        H242   1.082       .  S
C238        C239   1.406   1_645  A
C238        H243   1.083       .  S
C239        C528   1.406       .  A
C240        C527   1.406       .  A
C240        H244   1.082       .  S
C245        C246   1.349       .  D
C245        H247   1.087       .  S
C246        H248   1.086       .  S
C249        C250   1.349       .  D
C249        H251   1.087       .  S
C250        H252   1.085       .  S
C253        C258   1.402       .  A
C253        C542   1.405   1_455  A
C253        H259   1.083   1_565  S
C254        C541   1.408   1_655  A
C254        C831   1.406       .  A
C255        C256   1.404       .  A
C255        C830   1.406       .  A
C255        H260   1.082       .  S
C256        C833   1.408       .  A
C256        H261   1.082       .  S
C257        C832   1.406   1_455  A
C257        C546   1.405       .  A
C258        C545   1.407   1_455  A
C258        H262   1.082   1_565  S
C263        C264   1.351       .  D
C263        H265   1.087       .  S
C264        H266   1.085       .  S
C267        C268   1.352       .  D
C267        H269   1.085       .  S
C268        H270   1.087       .  S
C271        C272   1.405   1_445  A
C271        C276   1.400   1_556  A
C271        H277   1.083       .  S
C272       C1137   1.406       .  A
C272        C597   1.487       .  S
C273        C274   1.401       .  A
C273       C1136   1.406   1_554  A
C273        H278   1.082   1_554  S
C274       C1139   1.406       .  A
C274        H279   1.082       .  S
C275        C276   1.406   1_565  A
C275       C1138   1.407   1_455  A
C275        C405   1.489       .  S
C276        H280   1.082       .  S
C281        C282   1.351       .  D
C281        H283   1.086       .  S
C282        H284   1.086       .  S
C285        C286   1.349       .  D
C285        H287   1.086       .  S
C286        H288   1.087       .  S
N289        N290   1.320       .  A
N289        C293   1.356       .  A
N289       Cu297   2.095       .  S
N290        C291   1.337       .  A
N290       Cu872   2.054       .  S
C291        C292   1.376       .  A
C291        H294   1.082       .  S
C292        C293   1.392       .  A
C292        C569   1.474       .  S
C293        H295   1.082       .  S
Cu296       N866   2.064       .  S
Cu297       N307   2.100       .  S
Cu298       N300   2.097       .  S
Cu298       N306   2.100       .  S
N299        N300   1.321       .  A
N299        C303   1.339       .  A
N300        C301   1.355       .  A
C301        C302   1.392       .  A
C301        H304   1.082       .  S
C302        C303   1.378       .  A
C302        C574   1.477       .  S
C303        H305   1.082       .  S
N306        N595   1.327   1_455  A
N306        C310   1.348       .  A
N307        N594   1.328   1_565  A
N307        C308   1.348       .  A
C308        H311   1.082       .  S
C309        C886   1.388       .  A
C309       C1136   1.493       .  S
C310        C885   1.388   1_455  A
C310        H312   1.082       .  S
N313        N314   1.321       .  A
N313        C317   1.351       .  A
N313       Cu321   2.081       .  S
N314        C315   1.344       .  A
C315        C316   1.384       .  A
C315        H318   1.082       .  S
C316        C317   1.389       .  A
C316        C556   1.482       .  S
C317        H319   1.082       .  S
Cu320       N899   2.077   1_545  S
Cu321       N331   2.083       .  S
Cu322       N324   2.087       .  S
Cu322       N330   2.090       .  S
N323        N324   1.321       .  A
N323        C327   1.342       .  A
N323       Cu896   2.078   1_565  S
N324        C325   1.353       .  A
C325        C326   1.390       .  A
C325        H328   1.082       .  S
C326        C327   1.382       .  A
C326        C551   1.482       .  S
C327        H329   1.082       .  S
N330        N619   1.326   1_565  A
N330        C334   1.346       .  A
N331        N618   1.325   1_455  A
N331        C332   1.346       .  A
C332        H335   1.082       .  S
C333        C910   1.385       .  A
C333        C542   1.487       .  S
C334        C909   1.386       .  A
C334        H336   1.082       .  S
N337        C341   1.353       .  A
N337       Cu345   2.086       .  S
N338        C339   1.342       .  A
N338       Cu344   2.079       .  S
C339        C340   1.382       .  A
C339        H342   1.082       .  S
C340        C537   1.483       .  S
C341        H343   1.082       .  S
Cu344       N923   2.080   1_455  S
Cu345       N355   2.089       .  S
Cu346       N348   2.102       .  S
Cu346       N354   2.105       .  S
N347        C351   1.343       .  A
N347       Cu920   2.078       .  S
N348        C349   1.356       .  A
C349        H352   1.082       .  S
C350        C351   1.381       .  A
C350        C533   1.477   1_545  S
C351        H353   1.082       .  S
N354        N931   1.326       .  A
N354        C358   1.350       .  A
N355        N930   1.326   1_455  A
N355        C356   1.346       .  A
C356        C357   1.385       .  A
C356        H359   1.082       .  S
C357        C934   1.390   1_455  A
C357        C524   1.490       .  S
C358        C933   1.389       .  A
C358        H360   1.082       .  S
N361        N362   1.320       .  A
N361        C365   1.354       .  A
N361       Cu369   2.090       .  S
N362        C363   1.341       .  A
N362       Cu944   2.067       .  S
C363        C364   1.379       .  A
C363        H366   1.082       .  S
C364        C365   1.390       .  A
C364        C516   1.475   1_565  S
C365        H367   1.082       .  S
Cu368       N938   2.054       .  S
Cu368       N371   2.053   1_655  S
Cu369       N379   2.093       .  S
Cu370       N372   2.101       .  S
Cu370       N378   2.105       .  S
N371        N372   1.320       .  A
N371        C375   1.338       .  A
N372        C373   1.356       .  A
C373        C374   1.393       .  A
C373        H376   1.082       .  S
C374        C375   1.376       .  A
C374        C520   1.477       .  S
C375        H377   1.082       .  S
N378        N955   1.328   1_455  A
N378        C382   1.348       .  A
N379        N954   1.327       .  A
N379        C380   1.346       .  A
C380        C957   1.385       .  A
C380        H383   1.082       .  S
C381        C956   1.386       .  A
C381        C382   1.387   1_655  A
C381        C545   1.488       .  S
C382        H384   1.082       .  S
N385        N386   1.321       .  A
N385        C389   1.354       .  A
N385       Cu393   2.093       .  S
N386        C387   1.341       .  A
C387        C388   1.380       .  A
C387        H390   1.082       .  S
C388        C389   1.389       .  A
C388        C512   1.476       .  S
C389        H391   1.082       .  S
Cu392       N395   2.061       .  S
Cu393       N403   2.096       .  S
Cu394       N396   2.095       .  S
Cu394       N402   2.098       .  S
N395        N396   1.321   1_655  A
N395        C399   1.340       .  A
N396        C397   1.354       .  A
C397        C398   1.391   1_455  A
C397        H400   1.082       .  S
C398        C399   1.378       .  A
C398        C507   1.478       .  S
C399        H401   1.082       .  S
N402        C406   1.348       .  A
N403        C404   1.348       .  A
C404        C405   1.388       .  A
C404        H407   1.082       .  S
C406        H408   1.082       .  S
N409        N410   1.321       .  A
N409        C413   1.354       .  A
N409       Cu417   2.093       .  S
N410        C411   1.341       .  A
N410       Cu416   2.073       .  S
C411        C412   1.381       .  A
C411        H414   1.082       .  S
C412        C413   1.392       .  A
C412        C500   1.482       .  S
C413        H415   1.082       .  S
Cu417       N427   2.096       .  S
Cu418       N420   2.088       .  S
Cu418       N426   2.091       .  S
N419        N420   1.321       .  A
N419        C423   1.341       .  A
N420        C421   1.353       .  A
C421        C422   1.390       .  A
C421        H424   1.082       .  S
C422        C423   1.381       .  A
C422        C504   1.479       .  S
C423        H425   1.082       .  S
N426        C430   1.347       .  A
N427        C428   1.348       .  A
C428        C429   1.387       .  A
C428        H431   1.082       .  S
C429        C527   1.491       .  S
C430        H432   1.082       .  S
C433        C434   1.401       .  A
C433        C438   1.419       .  A
C433        C503   1.501       .  S
C434        C435   1.400       .  A
C434        H453   1.084       .  S
C435        C436   1.419       .  A
C435        C511   1.502       .  S
C436        C437   1.427       .  A
C436        C443   1.405       .  A
C437        C438   1.425       .  A
C437        C442   1.427       .  A
C438        C439   1.406       .  A
C439        C440   1.396       .  A
C439        H449   1.082       .  S
C440        C441   1.406       .  A
C440        H450   1.082       .  S
C441        C442   1.426       .  A
C441        C448   1.419       .  A
C442        C445   1.425       .  A
C443        C444   1.395       .  A
C443        H451   1.082       .  S
C444        C445   1.406       .  A
C444        H452   1.081       .  S
C445        C446   1.418       .  A
C446        C447   1.402       .  A
C446        C508   1.501       .  S
C447        C448   1.402       .  A
C447        H454   1.083       .  S
C448        C499   1.502       .  S
C455        C456   1.401       .  A
C455        C460   1.420       .  A
C455        C555   1.501       .  S
C456        C457   1.402       .  A
C456        H475   1.083       .  S
C457        C458   1.416       .  A
C457        C573   1.499       .  S
C458        C459   1.425       .  A
C458        C465   1.406       .  A
C459        C460   1.426       .  A
C459        C464   1.426       .  A
C460        C461   1.406       .  A
C461        C462   1.396       .  A
C461        H471   1.082       .  S
C462        C463   1.406       .  A
C462        H472   1.082       .  S
C463        C464   1.426       .  A
C463        C470   1.419       .  A
C464        C467   1.425       .  A
C465        C466   1.394       .  A
C465        H473   1.082       .  S
C466        C467   1.405       .  A
C466        H474   1.082       .  S
C467        C468   1.416       .  A
C468        C469   1.401       .  A
C468        C570   1.499       .  S
C469        C470   1.400       .  A
C469        H476   1.084       .  S
C470        C552   1.501       .  S
C477        C478   1.403   1_565  A
C477        C482   1.417       .  A
C477        C519   1.502       .  S
C478        C479   1.403       .  A
C478        H497   1.082       .  S
C479        C480   1.421       .  A
C479        C538   1.505       .  S
C480        C481   1.426       .  A
C480        C487   1.406       .  A
C481        C482   1.425   1_545  A
C481        C486   1.428       .  A
C482        C483   1.405       .  A
C483        C484   1.394       .  A
C483        H493   1.082       .  S
C484        C485   1.406       .  A
C484        H494   1.082       .  S
C485        C486   1.425   1_565  A
C485        C492   1.418       .  A
C486        C489   1.426       .  A
C487        C488   1.396       .  A
C487        H495   1.082       .  S
C488        C489   1.407       .  A
C488        H496   1.081       .  S
C489        C490   1.422       .  A
C490        C491   1.403   1_545  A
C490        C534   1.504       .  S
C491        C492   1.403       .  A
C491        H498   1.082       .  S
C492        C515   1.501       .  S
C499        C500   1.350       .  D
C499       H1077   1.085       .  S
C500        H502   1.087       .  S
H501       C1075   1.086       .  S
C503        C504   1.350       .  D
C503        H505   1.085       .  S
C504        H506   1.087       .  S
C507        C508   1.348   1_655  D
C507       H1085   1.087       .  S
C508        H510   1.085       .  S
H509       C1083   1.086       .  S
C511        C512   1.350       .  D
C511       H1089   1.086   1_455  S
C512        H514   1.087       .  S
H513       C1087   1.086       .  S
C515        C516   1.348   1_565  D
C515        H517   1.086       .  S
C519        C520   1.347       .  D
C519        H521   1.086   1_565  S
C520        H522   1.087       .  S
C523        C528   1.401       .  A
C523        H529   1.083       .  S
C524        C525   1.406       .  A
C525        C526   1.404       .  A
C525        H530   1.083   1_455  S
C526        C527   1.408       .  A
C526        H531   1.082   1_455  S
C528        H532   1.083       .  S
C533        C534   1.350   1_565  D
C533        H535   1.085       .  S
C534        H536   1.086       .  S
C537        C538   1.351       .  D
C537        H539   1.086       .  S
C538        H540   1.085       .  S
C541        C546   1.402       .  A
C541        H547   1.082       .  S
C542       C1119   1.406       .  A
C543       C1118   1.406       .  A
C543        C544   1.400       .  A
C543        H548   1.083       .  S
C544       C1121   1.406       .  A
C544        H549   1.082       .  S
C545       C1120   1.406       .  A
C546        H550   1.083       .  S
C551        C552   1.350       .  D
C551        H553   1.087       .  S
C552        H554   1.085       .  S
C555        C556   1.351       .  D
C555        H557   1.085       .  S
C556        H558   1.087       .  S
C559        C560   1.407   1_455  A
C559        C564   1.403   1_556  A
C559        H565   1.082       .  S
C560        C849   1.407       .  A
C560        C885   1.490       .  S
C561        C848   1.407   1_554  A
C561        C562   1.403       .  A
C561        H566   1.082   1_554  S
C562        C851   1.406       .  A
C562        H567   1.082       .  S
C563        C850   1.406       .  A
C563        C564   1.406   1_655  A
C564        H568   1.083       .  S
C569        C570   1.347       .  D
C569        H571   1.088       .  S
C570        H572   1.086       .  S
C573        C574   1.347       .  D
C573        H575   1.085       .  S
C574        H576   1.087       .  S
N577        N578   1.320       .  A
N577        C581   1.353       .  A
N577       Cu585   2.095       .  S
N578        C579   1.341       .  A
C579        C580   1.379       .  A
C579        H582   1.082       .  S
C580        C581   1.390       .  A
C580        C857   1.475       .  S
C581        H583   1.082       .  S
Cu584       N875   2.068       .  S
Cu585       N595   2.098       .  S
Cu586       N588   2.104       .  S
Cu586       N594   2.108       .  S
N587        N588   1.320       .  A
N587        C591   1.338       .  A
N587       Cu872   2.055   1_545  S
N588        C589   1.357       .  A
C589        C590   1.394       .  A
C589        H592   1.082       .  S
C590        C591   1.377       .  A
C590        C862   1.480       .  S
C591        H593   1.082       .  S
N594        C598   1.348       .  A
N595        C596   1.348       .  A
C596        C885   1.388       .  A
C596        H599   1.082       .  S
C597        C884   1.387       .  A
C598        H600   1.082       .  S
N601        N602   1.322       .  A
N601        C605   1.354       .  A
N601       Cu609   2.097       .  S
N602        C603   1.342       .  A
N602       Cu896   2.078       .  S
C603        C604   1.382       .  A
C603        H606   1.082       .  S
C604        C605   1.392       .  A
C604        C844   1.484       .  S
C605        H607   1.082       .  S
Cu608       N890   2.077       .  S
Cu609       N619   2.099       .  S
Cu610       N612   2.103       .  S
Cu610       N618   2.105       .  S
N611        N612   1.323       .  A
N611        C615   1.342       .  A
N612        C613   1.356       .  A
C613        C614   1.393       .  A
C613        H616   1.082       .  S
C614        C615   1.382       .  A
C614        C839   1.486       .  S
C615        H617   1.082       .  S
N618        C622   1.350       .  A
N619        C620   1.349       .  A
C620        C909   1.388   1_545  A
C620        H623   1.082       .  S
C621        C908   1.385       .  A
C621        C830   1.493       .  S
C622        H624   1.082       .  S
N625        N914   1.321       .  A
N625        C629   1.351       .  A
N625       Cu633   2.079       .  S
N626        N913   1.320       .  A
N626        C627   1.342       .  A
N626       Cu632   2.073       .  S
C627        C628   1.382       .  A
C627        H630   1.082       .  S
C628        C917   1.390       .  A
C628        C825   1.481       .  S
C629        C916   1.388       .  A
C629        H631   1.082       .  S
Cu633       N643   2.081       .  S
Cu634       N636   2.098       .  S
Cu634       N642   2.100   1_545  S
N635        N924   1.322       .  A
N635        C639   1.340       .  A
N636        N923   1.322       .  A
N636        C637   1.354       .  A
C637        C926   1.390       .  A
C637        H640   1.082   1_545  S
C638        C925   1.393       .  A
C638        C639   1.380       .  A
C638        C821   1.483       .  S
C639        H641   1.082       .  S
N642        C646   1.349       .  A
N643        C644   1.344       .  A
C644        C645   1.384   1_545  A
C644        H647   1.082       .  S
C645        C812   1.484       .  S
C646        H648   1.082       .  S
N649        N650   1.321       .  A
N649        C653   1.353       .  A
N649       Cu657   2.088       .  S
N650        C651   1.341       .  A
C651        C652   1.380       .  A
C651        H654   1.082       .  S
C652        C653   1.391       .  A
C652        C804   1.480       .  S
C653        H655   1.082       .  S
Cu656       N659   2.075       .  S
Cu657       N667   2.091   1_655  S
Cu658       N660   2.104       .  S
Cu658       N666   2.106       .  S
N659        N660   1.322       .  A
N659        C663   1.343       .  A
N660        C661   1.353       .  A
C661        C662   1.391       .  A
C661        H664   1.082       .  S
C662        C663   1.382       .  A
C662        C808   1.478       .  S
C663        H665   1.082       .  S
N666        C670   1.351       .  A
N667        C668   1.346   1_455  A
C668        H671   1.082       .  S
C669        C670   1.392       .  A
C669        C833   1.492       .  S
C670        H672   1.082       .  S
N673        N674   1.320       .  A
N673        C677   1.352       .  A
N673       Cu681   2.089       .  S
N674        C675   1.341       .  A
N674       Cu968   2.064       .  S
C675        C676   1.379       .  A
C675        H678   1.082       .  S
C676        C677   1.389       .  A
C676        C800   1.473       .  S
C677        H679   1.082       .  S
Cu680       N962   2.070       .  S
Cu680       N683   2.069   1_565  S
Cu681       N691   2.092       .  S
Cu682       N684   2.092       .  S
Cu682       N690   2.095   1_545  S
N683        N684   1.321       .  A
N683        C687   1.340       .  A
N684        C685   1.355       .  A
C685        C686   1.391       .  A
C685        H688   1.082       .  S
C686        C687   1.380       .  A
C686        C795   1.479       .  S
C687        H689   1.082       .  S
N690        N979   1.327       .  A
N690        C694   1.346   1_565  A
N691        N978   1.326       .  A
N691        C692   1.346       .  A
C692        C693   1.386       .  A
C692        H695   1.082       .  S
C693        C982   1.390       .  A
C693       C1139   1.491       .  S
C694        C981   1.386   1_545  A
C694        H696   1.082       .  S
N697        N698   1.321       .  A
N697        C701   1.351       .  A
N697       Cu705   2.082       .  S
N698        C699   1.342       .  A
N698       Cu704   2.074       .  S
C699        C700   1.382       .  A
C699        H702   1.082       .  S
C700        C701   1.389       .  A
C700        C788   1.479       .  S
C701        H703   1.082       .  S
Cu704       N995   2.073   1_545  S
Cu705       N715   2.084       .  S
Cu706       N708   2.100       .  S
Cu706       N714   2.103       .  S
N707        N708   1.321       .  A
N707        C711   1.342       .  A
N707       Cu992   2.074       .  S
N708        C709   1.355       .  A
C709        C710   1.393       .  A
C709        H712   1.082       .  S
C710        C711   1.381       .  A
C710        C792   1.485       .  S
C711        H713   1.082       .  S
N714       N1003   1.326       .  A
N714        C718   1.348       .  A
N715       N1002   1.325   1_545  A
N715        C716   1.345       .  A
C716        C717   1.384   1_545  A
C716        H719   1.082       .  S
C717       C1006   1.388       .  A
C717        C815   1.484       .  S
C718       C1005   1.389       .  A
C718        H720   1.082       .  S
C721        C722   1.404       .  A
C721        C726   1.421       .  A
C721        C791   1.505       .  S
C722        C723   1.403       .  A
C722        H741   1.083       .  S
C723        C724   1.417       .  A
C723        C799   1.499       .  S
C724        C725   1.423       .  A
C724        C731   1.407       .  A
C725        C726   1.426       .  A
C725        C730   1.427       .  A
C726        C727   1.406       .  A
C727        C728   1.396       .  A
C727        H737   1.082       .  S
C728        C729   1.406       .  A
C728        H738   1.082       .  S
C729        C730   1.424       .  A
C729        C736   1.418       .  A
C730        C733   1.427       .  A
C731        C732   1.394       .  A
C731        H739   1.081       .  S
C732        C733   1.404       .  A
C732        H740   1.082       .  S
C733        C734   1.418       .  A
C734        C735   1.401       .  A
C734        C796   1.502       .  S
C735        C736   1.401       .  A
C735        H742   1.083       .  S
C736        C787   1.499       .  S
C743        C744   1.404       .  A
C743        C748   1.421       .  A
C743        C843   1.504       .  S
C744        C745   1.404       .  A
C744        H763   1.082       .  S
C745        C746   1.419       .  A
C745        C861   1.506       .  S
C746        C747   1.426       .  A
C746        C753   1.405       .  A
C747        C748   1.425       .  A
C747        C752   1.429       .  A
C748        C749   1.407       .  A
C749        C750   1.398       .  A
C749        H759   1.082       .  S
C750        C751   1.406       .  A
C750        H760   1.082       .  S
C751        C752   1.427       .  A
C751        C758   1.422       .  A
C752        C755   1.425       .  A
C753        C754   1.393       .  A
C753        H761   1.082       .  S
C754        C755   1.406       .  A
C754        H762   1.081       .  S
C755        C756   1.418       .  A
C756        C757   1.402       .  A
C756        C858   1.502       .  S
C757        C758   1.402       .  A
C757        H764   1.083       .  S
C758        C840   1.506       .  S
C765        C766   1.401       .  A
C765        C770   1.419       .  A
C765        C807   1.501       .  S
C766        C767   1.403       .  A
C766        H785   1.084       .  S
C767        C768   1.420       .  A
C767        C826   1.501       .  S
C768        C769   1.425       .  A
C768        C775   1.407       .  A
C769        C770   1.426       .  A
C769        C774   1.428       .  A
C770        C771   1.405       .  A
C771        C772   1.394       .  A
C771        H781   1.082       .  S
C772        C773   1.406       .  A
C772        H782   1.082       .  S
C773        C774   1.425       .  A
C773        C780   1.418       .  A
C774        C777   1.426       .  A
C775        C776   1.397       .  A
C775        H783   1.081       .  S
C776        C777   1.405       .  A
C776        H784   1.082       .  S
C777        C778   1.420       .  A
C778        C779   1.402       .  A
C778        C822   1.503       .  S
C779        C780   1.402       .  A
C779        H786   1.082       .  S
C780        C803   1.501       .  S
C787        C788   1.349       .  D
C788        H790   1.087       .  S
C791        C792   1.351       .  D
C791        H793   1.085       .  S
C792        H794   1.087       .  S
C795        C796   1.349       .  D
C796        H798   1.086       .  S
C799        C800   1.346       .  D
C800        H802   1.086       .  S
C803        C804   1.348       .  D
C803        H805   1.085       .  S
C804       H1094   1.087       .  S
H806       C1092   1.087       .  S
C807        C808   1.349       .  D
C807        H809   1.086       .  S
C808        H810   1.086       .  S
C811       C1100   1.406       .  A
C811        C816   1.401       .  A
C811        H817   1.083       .  S
C812       C1099   1.406       .  A
C812        C813   1.405   1_565  A
C813        C814   1.401       .  A
C813        H818   1.083       .  S
C814        C815   1.406   1_545  A
C814        H819   1.083       .  S
C815       C1104   1.404       .  A
C816       C1103   1.406       .  A
C816        H820   1.082       .  S
C821        C822   1.350       .  D
C821        H823   1.087       .  S
C822        H824   1.086       .  S
C825        C826   1.350       .  D
C825        H827   1.087       .  S
C826        H828   1.085       .  S
C829       C1118   1.406       .  A
C829        C834   1.404       .  A
C829        H835   1.083   1_565  S
C830       C1117   1.409       .  A
C831        C832   1.402       .  A
C831        H836   1.082       .  S
C832        H837   1.083       .  S
C833       C1122   1.405       .  A
C834       C1121   1.407       .  A
C834        H838   1.082   1_565  S
C839        C840   1.353       .  D
C839        H841   1.087       .  S
C840        H842   1.085       .  S
C843        C844   1.351       .  D
C843        H845   1.085       .  S
C844        H846   1.087       .  S
C847        C848   1.406   1_544  A
C847        C852   1.401       .  A
C847        H853   1.082   1_554  S
C849        C850   1.402   1_556  A
C849        H854   1.082       .  S
C850        H855   1.083       .  S
C851        C852   1.406   1_565  A
C851        C981   1.489       .  S
C852        H856   1.082       .  S
C857        C858   1.348       .  D
C857        H859   1.086       .  S
C858        H860   1.086       .  S
C861        C862   1.348       .  D
C861        H863   1.086       .  S
C862        H864   1.086       .  S
N865        N866   1.321       .  A
N865        C869   1.355       .  A
N865       Cu873   2.096       .  S
N866        C867   1.340       .  A
C867        C868   1.378       .  A
C867        H870   1.082       .  S
C868        C869   1.390       .  A
C868       C1145   1.475       .  S
C869        H871   1.082       .  S
Cu873       N883   2.099       .  S
Cu874       N876   2.090       .  S
Cu874       N882   2.093       .  S
N875        N876   1.322       .  A
N875        C879   1.340       .  A
N876        C877   1.353       .  A
C877        C878   1.390       .  A
C877        H880   1.082       .  S
C878        C879   1.379       .  A
C878       C1150   1.477       .  S
C879        H881   1.082       .  S
N882        C886   1.349       .  A
N883        C884   1.349       .  A
C884        H887   1.082       .  S
C886        H888   1.082       .  S
N889        N890   1.320       .  A
N889        C893   1.352       .  A
N889       Cu897   2.083       .  S
N890        C891   1.343       .  A
C891        C892   1.383       .  A
C891        H894   1.082       .  S
C892        C893   1.390       .  A
C892       C1132   1.482       .  S
C893        H895   1.082       .  S
Cu897       N907   2.085       .  S
Cu898       N900   2.086       .  S
Cu898       N906   2.089       .  S
N899        N900   1.321       .  A
N899        C903   1.341       .  A
N900        C901   1.353       .  A
C901        C902   1.391       .  A
C901        H904   1.082       .  S
C902        C903   1.381       .  A
C902       C1127   1.480       .  S
C903        H905   1.082       .  S
N906        C910   1.346       .  A
N907        C908   1.345       .  A
C908        H911   1.082       .  S
C909       C1118   1.487       .  S
C910        H912   1.082       .  S
N913        C917   1.352       .  A
N913       Cu921   2.087       .  S
N914        C915   1.342       .  A
N914       Cu920   2.077       .  S
C915        C916   1.382       .  A
C915        H918   1.082       .  S
C916       C1113   1.478       .  S
C917        H919   1.082       .  S
Cu921       N931   2.090       .  S
Cu922       N924   2.104       .  S
Cu922       N930   2.107       .  S
N923        C927   1.344       .  A
N924        C925   1.356       .  A
C925        H928   1.082       .  S
C926        C927   1.382       .  A
C926       C1109   1.480   1_545  S
C927        H929   1.082       .  S
N930        C934   1.350       .  A
N931        C932   1.346       .  A
C932        C933   1.386       .  A
C932        H935   1.082       .  S
C933       C1100   1.489       .  S
C934        H936   1.082       .  S
N937        N938   1.320       .  A
N937        C941   1.354       .  A
N937       Cu945   2.094       .  S
N938        C939   1.339       .  A
C939        C940   1.376       .  A
C939        H942   1.082   1_565  S
C940        C941   1.391       .  A
C940       C1092   1.473   1_565  S
C941        H943   1.082       .  S
Cu944       N947   2.067       .  S
Cu945       N955   2.098       .  S
Cu946       N948   2.106       .  S
Cu946       N954   2.109       .  S
N947        N948   1.322       .  A
N947        C951   1.340       .  A
N948        C949   1.357       .  A
C949        C950   1.394       .  A
C949        H952   1.082       .  S
C950        C951   1.379       .  A
C950       C1096   1.483       .  S
C951        H953   1.082       .  S
N954        C958   1.350       .  A
N955        C956   1.347       .  A
C956        H959   1.082       .  S
C957        C958   1.389       .  A
C957       C1121   1.489       .  S
C958        H960   1.082       .  S
N961        N962   1.321       .  A
N961        C965   1.355       .  A
N961       Cu969   2.097       .  S
N962        C963   1.341       .  A
C963        C964   1.379       .  A
C963        H966   1.082       .  S
C964        C965   1.390       .  A
C964       C1088   1.477       .  S
C965        H967   1.082       .  S
Cu968       N971   2.065       .  S
Cu969       N979   2.101       .  S
Cu970       N972   2.105       .  S
Cu970       N978   2.108       .  S
N971        N972   1.322       .  A
N971        C975   1.341       .  A
N972        C973   1.355       .  A
C973        C974   1.393       .  A
C973        H976   1.082       .  S
C974        C975   1.379       .  A
C974       C1083   1.482       .  S
C975        H977   1.082       .  S
N978        C982   1.351       .  A
N979        C980   1.349       .  A
C980        C981   1.389       .  A
C980        H983   1.082       .  S
C982        H984   1.082       .  S
N985        N986   1.321       .  A
N985        C989   1.355       .  A
N985       Cu993   2.095       .  S
N986        C987   1.341       .  A
N986       Cu992   2.074       .  S
C987        C988   1.380       .  A
C987        H990   1.082       .  S
C988        C989   1.392       .  A
C988       C1076   1.482       .  S
C989        H991   1.082       .  S
Cu993      N1003   2.098       .  S
Cu994       N996   2.092       .  S
Cu994      N1002   2.095       .  S
N995        N996   1.322       .  A
N995        C999   1.341       .  A
N996        C997   1.354       .  A
C997        C998   1.391       .  A
C997       H1000   1.082       .  S
C998        C999   1.380       .  A
C998       C1080   1.481       .  S
C999       H1001   1.082       .  S
N1002      C1006   1.348       .  A
N1003      C1004   1.348       .  A
C1004      C1005   1.388       .  A
C1004      H1007   1.082       .  S
C1005      C1103   1.492       .  S
C1006      H1008   1.082       .  S
C1009      C1010   1.401       .  A
C1009      C1014   1.418       .  A
C1009      C1079   1.501       .  S
C1010      C1011   1.402       .  A
C1010      H1029   1.084       .  S
C1011      C1012   1.421       .  A
C1011      C1087   1.504       .  S
C1012      C1013   1.427       .  A
C1012      C1019   1.406       .  A
C1013      C1014   1.426       .  A
C1013      C1018   1.428       .  A
C1014      C1015   1.406       .  A
C1015      C1016   1.395       .  A
C1015      H1025   1.082       .  S
C1016      C1017   1.405       .  A
C1016      H1026   1.082       .  S
C1017      C1018   1.426       .  A
C1017      C1024   1.418       .  A
C1018      C1021   1.426       .  A
C1019      C1020   1.396       .  A
C1019      H1027   1.082       .  S
C1020      C1021   1.406       .  A
C1020      H1028   1.081       .  S
C1021      C1022   1.421       .  A
C1022      C1023   1.403       .  A
C1022      C1084   1.505       .  S
C1023      C1024   1.402       .  A
C1023      H1030   1.083       .  S
C1024      C1075   1.501       .  S
C1031      C1032   1.401       .  A
C1031      C1036   1.420       .  A
C1031      C1131   1.502       .  S
C1032      C1033   1.401       .  A
C1032      H1051   1.083       .  S
C1033      C1034   1.416       .  A
C1033      C1149   1.498       .  S
C1034      C1035   1.424       .  A
C1034      C1041   1.406       .  A
C1035      C1036   1.426       .  A
C1035      C1040   1.426       .  A
C1036      C1037   1.406       .  A
C1037      C1038   1.396       .  A
C1037      H1047   1.082       .  S
C1038      C1039   1.406       .  A
C1038      H1048   1.082       .  S
C1039      C1040   1.425       .  A
C1039      C1046   1.418       .  A
C1040      C1043   1.426       .  A
C1041      C1042   1.394       .  A
C1041      H1049   1.082       .  S
C1042      C1043   1.405       .  A
C1042      H1050   1.082       .  S
C1043      C1044   1.417       .  A
C1044      C1045   1.401       .  A
C1044      C1146   1.501       .  S
C1045      C1046   1.401       .  A
C1045      H1052   1.084       .  S
C1046      C1128   1.500       .  S
C1053      C1054   1.402   1_565  A
C1053      C1058   1.420       .  A
C1053      C1095   1.507       .  S
C1054      C1055   1.402       .  A
C1054      H1073   1.083       .  S
C1055      C1056   1.418       .  A
C1055      C1114   1.499       .  S
C1056      C1057   1.424       .  A
C1056      C1063   1.406       .  A
C1057      C1058   1.428   1_545  A
C1057      C1062   1.428       .  A
C1058      C1059   1.404       .  A
C1059      C1060   1.394       .  A
C1059      H1069   1.082       .  S
C1060      C1061   1.407       .  A
C1060      H1070   1.081       .  S
C1061      C1062   1.423   1_565  A
C1061      C1068   1.417       .  A
C1062      C1065   1.427       .  A
C1063      C1064   1.395       .  A
C1063      H1071   1.082       .  S
C1064      C1065   1.406       .  A
C1064      H1072   1.082       .  S
C1065      C1066   1.422       .  A
C1066      C1067   1.402       .  A
C1066      C1110   1.505       .  S
C1067      C1068   1.404   1_545  A
C1067      H1074   1.082       .  S
C1068      C1091   1.499       .  S
C1075      C1076   1.349       .  D
C1076      H1078   1.087       .  S
C1079      C1080   1.349       .  D
C1079      H1081   1.085       .  S
C1080      H1082   1.087       .  S
C1083      C1084   1.350       .  D
C1084      H1086   1.085       .  S
C1087      C1088   1.351       .  D
C1088      H1090   1.086       .  S
C1091      C1092   1.346   1_565  D
C1091      H1093   1.086       .  S
C1095      C1096   1.350       .  D
C1095      H1097   1.085   1_565  S
C1096      H1098   1.087       .  S
C1099      C1104   1.400       .  A
C1099      H1105   1.083       .  S
C1100      C1101   1.406       .  A
C1101      C1102   1.404       .  A
C1101      H1106   1.083       .  S
C1102      C1103   1.408       .  A
C1102      H1107   1.082       .  S
C1104      H1108   1.083       .  S
C1109      C1110   1.351   1_565  D
C1109      H1111   1.086       .  S
C1110      H1112   1.086       .  S
C1113      C1114   1.349       .  D
C1113      H1115   1.087       .  S
C1114      H1116   1.085       .  S
C1117      C1122   1.402       .  A
C1117      H1123   1.082       .  S
C1119      C1120   1.401       .  A
C1119      H1124   1.083       .  S
C1120      H1125   1.083       .  S
C1122      H1126   1.082       .  S
C1127      C1128   1.349       .  D
C1127      H1129   1.087       .  S
C1128      H1130   1.085       .  S
C1131      C1132   1.351       .  D
C1131      H1133   1.085       .  S
C1132      H1134   1.087       .  S
C1135      C1136   1.409   1_554  A
C1135      C1140   1.406       .  A
C1135      H1141   1.082   1_554  S
C1137      C1138   1.402   1_556  A
C1137      H1142   1.083       .  S
C1138      H1143   1.082       .  S
C1139      C1140   1.406       .  A
C1140      H1144   1.083       .  S
C1145      C1146   1.348       .  D
C1145      H1147   1.087       .  S
C1146      H1148   1.086       .  S
C1149      C1150   1.347       .  D
C1149      H1151   1.085       .  S
C1150      H1152   1.087       .  S
