geometry optimzed in LAMMPS
_audit_creation_date              2020-11-30 
_audit_creation_method            'lammps2cif' 
_symmetry_space_group_name_H-M    'P1' 
_symmetry_Int_Tables_number       1 
_symmetry_cell_setting            triclinic 
loop_ 
_symmetry_equiv_pos_as_xyz 
  x,y,z 
_cell_length_a                    39.24342371 
_cell_length_b                    38.442403053514404 
_cell_length_c                    29.121875927839458 
_cell_angle_alpha                 90.90510029734592 
_cell_angle_beta                  90.46910404923631 
_cell_angle_gamma                 90.08154441227214 
loop_ 
_atom_site_label 
_atom_site_type_symbol 
_atom_site_fract_x 
_atom_site_fract_y 
_atom_site_fract_z 
_atom_site_charge 
O1          O  0.25696285  0.18671644  0.36164896    -0.86600
O2          O  0.26000839  0.18631119  0.62499153    -0.86800
O3          O  0.30970183  0.14379788  0.49497552    -0.88500
O4          O  0.20146690  0.15428377  0.49639952    -0.87200
O5          O  0.16339163  0.19943232  0.49565812    -0.86800
O6          O  0.35354866  0.18317960  0.49595417    -0.88200
O7          O  0.25668518  0.14747376  0.56465637    -0.86700
O8          O  0.25400560  0.14785060  0.42075352    -0.86200
Zr9        Zr  0.25810104  0.17814756  0.49333009     2.84300
O10         O  0.22701015  0.21429177  0.54263341    -1.08200
O11         O  0.29367072  0.20893902  0.44443174    -1.08900
C12         C  0.25393281  0.15541646  0.37789798     1.06500
C13         C  0.25779010  0.15468505  0.60794348     1.06400
C14         C  0.34143888  0.15207720  0.49682719     1.09400
C15         C  0.17124539  0.16705852  0.49680847     1.07200
H16         H  0.30769703  0.19386170  0.56025801     0.32700
O17         O  0.29416572  0.20958994  0.54221057    -1.29200
H18         H  0.21029343  0.20085889  0.42852405     0.32400
O19         O  0.22623158  0.21463024  0.44641743    -1.30900
O20         O  0.26423682  0.30664288  0.62690995    -0.86600
O21         O  0.26154715  0.30611269  0.36385393    -0.88100
O22         O  0.35859167  0.23939924  0.56716256    -0.86700
O23         O  0.16689979  0.25438580  0.56789167    -0.86700
O24         O  0.16711299  0.25369871  0.42454112    -0.86500
O25         O  0.35799722  0.24114897  0.42124310    -0.86300
O26         O  0.32556956  0.33835240  0.49941054    -0.86600
O27         O  0.21577903  0.34852573  0.49732997    -0.86100
O28         O  0.36311801  0.29278500  0.49620171    -0.87200
O29         O  0.17190709  0.30924687  0.49408396    -0.86300
O30         O  0.32100140  0.24313575  0.62715783    -0.86700
O31         O  0.31983754  0.24477962  0.36138870    -0.86400
O32         O  0.20196636  0.24814500  0.36271995    -0.86100
O33         O  0.20520140  0.24823102  0.62714561    -0.86500
O34         O  0.26912854  0.34655440  0.56902045    -0.86800
O35         O  0.26708324  0.34576950  0.42311891    -0.88100
Zr36       Zr  0.26319798  0.24646803  0.59210134     2.83100
Zr37       Zr  0.26145830  0.24644139  0.39685378     2.83500
Zr38       Zr  0.32913941  0.24101877  0.49392645     2.84100
Zr39       Zr  0.19676069  0.25197293  0.49582701     2.83400
Zr40       Zr  0.26815949  0.31545093  0.49585617     2.84200
O41         O  0.23147282  0.28377723  0.44746647    -1.08700
O42         O  0.29919605  0.27826873  0.54317515    -1.08200
C43         C  0.26616927  0.33834436  0.61156365     1.06500
C44         C  0.26379806  0.33791377  0.37998816     1.09100
C45         C  0.35150893  0.24023588  0.61033538     1.06600
C46         C  0.17436130  0.25183790  0.61083988     1.07000
C47         C  0.17182229  0.25086314  0.38134460     1.06600
C48         C  0.35077893  0.24252303  0.37812980     1.06100
C49         C  0.35573999  0.32521361  0.49923048     1.06500
C50         C  0.18396825  0.34035617  0.49590813     1.06100
H51         H  0.31364272  0.29228885  0.42863940     0.32700
O52         O  0.29828772  0.27843187  0.44660919    -1.29800
H53         H  0.21867048  0.29977924  0.56243893     0.32800
O54         O  0.23236619  0.28413457  0.54409210    -1.31200
N55         N  0.06458497  0.50238580  0.53168147    -0.36700
N56         N  0.50896063  0.04816521  0.52724237    -0.57300
N57         N  0.46341211  0.48981107  0.51838978    -0.36700
N58         N  0.51988672  0.44247153  0.52449047    -0.57300
C59         C  0.08153999  0.02958659  0.50888865     0.26800
C60         C  0.08498885  0.47574712  0.51923831     0.26800
C61         C  0.44245897  0.01592559  0.51484707     0.26800
C62         C  0.44791359  0.45906891  0.50958719     0.26800
C63         C  0.03494638  0.07157353  0.52339991     0.35500
C64         C  0.47973716  0.06611464  0.53204892     0.35500
C65         C  0.04872838  0.42780661  0.54643909     0.35500
C66         C  0.49466019  0.41987800  0.53300540     0.35500
C67         C  0.11271736  0.02115343  0.48959392    -0.22000
C68         C  0.11269327  0.48805873  0.49499136    -0.22000
C69         C  0.41447213  0.00115303  0.49264329    -0.22000
C70         C  0.41632366  0.46462671  0.48931791    -0.22000
C71         C  0.02225747  0.10479975  0.53070957    -0.23100
C72         C  0.48659456  0.10109435  0.54003694    -0.23100
C73         C  0.04316745  0.39414391  0.56105467    -0.23100
C74         C  0.50780073  0.38838389  0.54740515    -0.23100
C75         C  0.06910131  0.06356789  0.51462079    -0.18400
C76         C  0.08008053  0.44087831  0.53128063    -0.18400
C77         C  0.46039837  0.42629309  0.52250149    -0.18400
C78         C  0.44738307  0.05182568  0.52286891    -0.18400
H79         H  0.13105311  0.03866815  0.47470490     0.14500
H80         H  0.13364505  0.47321658  0.48082085     0.14500
H81         H  0.39296708  0.01425993  0.47727175     0.14500
H82         H  0.39762939  0.44530391  0.47878114     0.14500
H83         H  0.03640447  0.12897843  0.53272843     0.12800
H84         H  0.46854658  0.12222325  0.54316385     0.12800
H85         H  0.06200694  0.37405711  0.56650018     0.12800
H86         H  0.49384534  0.36497971  0.55547146     0.12800
H87         H  0.04444590  0.50139904  0.55465149     0.26000
H88         H  0.48513800  0.49358649  0.53854095     0.26000
O89         O  0.48721259  0.43937301  0.86171756    -0.86600
O90         O  0.48871771  0.44184570  0.12460946    -0.86800
O91         O  0.04060857  0.40661245  0.99248036    -0.88500
O92         O  0.42754084  0.40798728  0.99545972    -0.87200
O93         O  0.38785605  0.45161460  0.99316781    -0.86800
O94         O  0.08202853  0.44862544  0.99127549    -0.88200
O95         O  0.48486570  0.40307272  0.06440008    -0.86700
O96         O  0.48441167  0.40114016  0.92102466    -0.86200
Zr97       Zr  0.48417877  0.43341174  0.99320178     2.84300
O98         O  0.45253516  0.46924073  0.04204788    -1.08200
O99         O  0.02059190  0.46749099  0.94396570    -1.08900
C100        C  0.48595201  0.40785645  0.87782669     1.06500
C101        C  0.48712407  0.41013739  0.10748737     1.06400
C102        C  0.07168242  0.41702922  0.99261072     1.09400
C103        C  0.39672888  0.41957900  0.99488367     1.07200
H104        H  0.03589657  0.45396054  0.05822465     0.32700
O105        O  0.02106540  0.46865571  0.04041419    -1.29200
H106        H  0.43656221  0.45328174  0.92724226     0.32400
O107        O  0.45155170  0.46798132  0.94548565    -1.30900
O108        O  0.49022697  0.06345091  0.12532198    -0.86600
O109        O  0.48529517  0.05774986  0.86128847    -0.88100
O110        O  0.08449289  0.50306779  0.06296486    -0.86700
O111        O  0.39154710  0.50586177  0.06825688    -0.86700
O112        O  0.38844399  0.00201892  0.92129904    -0.86500
O113        O  0.08186721  0.99905122  0.91739582    -0.86300
O114        O  0.04050867  0.09913144  0.99445846    -0.86600
O115        O  0.43199688  0.09945757  0.99712442    -0.86100
O116        O  0.08098471  0.05636352  0.98969165    -0.87200
O117        O  0.39015572  0.05796130  0.99562700    -0.86300
O118        O  0.04824897  0.50301229  0.12416636    -0.86700
O119        O  0.04342520  0.99799890  0.85761533    -0.86400
O120        O  0.42682077  0.99734756  0.86203493    -0.86100
O121        O  0.43091916  0.50295529  0.12717010    -0.86500
O122        O  0.49011945  0.10161186  0.06532260    -0.86800
O123        O  0.48509676  0.09820194  0.92050109    -0.88100
Zr124      Zr  0.48866411  0.50230661  0.09154739     2.83100
Zr125      Zr  0.48481632  0.99841761  0.89665353     2.83500
Zr126      Zr  0.05322590  0.50331895  0.99213961     2.84100
Zr127      Zr  0.41991771  0.50461771  0.99411626     2.83400
Zr128      Zr  0.48596815  0.06939363  0.99344712     2.84200
O129        O  0.45166767  0.03474423  0.94545345    -1.08700
O130        O  0.01988561  0.03692173  0.03792167    -1.08200
C131        C  0.49154645  0.09476815  0.10849498     1.06500
C132        C  0.48580775  0.08963909  0.87759212     1.09100
C133        C  0.07871964  0.50342740  0.10623584     1.06600
C134        C  0.39979792  0.50474271  0.11127819     1.07000
C135        C  0.39612347  0.99956187  0.87835224     1.06600
C136        C  0.07449418  0.99826737  0.87426240     1.06100
C137        C  0.07144744  0.08817564  0.99371128     1.06500
C138        C  0.40065115  0.08966603  0.99752967     1.06100
H139        H  0.03371388  0.05049031  0.92330683     0.32700
O140        O  0.01894633  0.03611795  0.94143280    -1.29800
H141        H  0.43902976  0.05216634  0.06132572     0.32800
O142        O  0.45282408  0.03669408  0.04282516    -1.31200
N143        N  0.28448571  0.25492198  0.01003443    -0.36700
N144        N  0.23544872  0.20077918  0.02322191    -0.57300
N145        N  0.18217536  0.25128828  0.02971948    -0.36700
N146        N  0.23213474  0.30546635  0.01649325    -0.57300
C147        C  0.30220006  0.22685062  0.99582027     0.26800
C148        C  0.30024862  0.28309329  0.99315500     0.26800
C149        C  0.16431803  0.22207345  0.02021129     0.26800
C150        C  0.16288649  0.27809293  0.01566983     0.26800
C151        C  0.26413763  0.18200816  0.02721532     0.35500
C152        C  0.20984760  0.18007447  0.03654741     0.35500
C153        C  0.25920457  0.32670565  0.02029534     0.35500
C154        C  0.20514845  0.32436647  0.02949739     0.35500
C155        C  0.32961513  0.23722240  0.96949735    -0.22000
C156        C  0.32841571  0.27296043  0.96792031    -0.22000
C157        C  0.13295695  0.23039399  0.00098784    -0.22000
C158        C  0.13220946  0.26591244  0.99764010    -0.22000
C159        C  0.25687007  0.14932015  0.04423231    -0.23100
C160        C  0.22216704  0.14796789  0.04963641    -0.23100
C161        C  0.24963152  0.35928668  0.03659041    -0.23100
C162        C  0.21500574  0.35781934  0.04236384    -0.23100
C163        C  0.29563498  0.19257914  0.00951657    -0.18400
C164        C  0.29139876  0.31760884  0.00399256    -0.18400
C165        C  0.17170483  0.31326648  0.02157340    -0.18400
C166        C  0.17553092  0.18822377  0.02940818    -0.18400
H167        H  0.34883055  0.22080415  0.95389229     0.14500
H168        H  0.34648558  0.28962370  0.95094982     0.14500
H169        H  0.11281536  0.21276205  0.99014553     0.14500
H170        H  0.11134209  0.28102571  0.98390565     0.14500
H171        H  0.27444554  0.12810898  0.04984401     0.12800
H172        H  0.20754477  0.12559988  0.06013763     0.12800
H173        H  0.26561942  0.38199318  0.04183845     0.12800
H174        H  0.19874676  0.37922732  0.05272033     0.12800
H175        H  0.26575976  0.25513010  0.03514687     0.26000
H176        H  0.20482207  0.25305949  0.04854860     0.26000
C177        C  0.04083694  0.25411457  0.27660369     0.86300
C178        C  0.03782419  0.22366728  0.24227790    -0.53900
C179        C  0.51053946  0.22235473  0.21879090     0.09300
C180        C  0.48692376  0.25430694  0.22736902     0.20200
C181        C  0.03618901  0.28713638  0.24837331    -0.54600
C182        C  0.50930300  0.28749852  0.22149826     0.09400
C183        C  0.50982471  0.25393148  0.30511107    -0.54100
C184        C  0.48012298  0.25360919  0.27943152     0.09900
H185        H  0.05653607  0.20289589  0.24026645     0.14500
H186        H  0.46348415  0.25364608  0.20582622     0.00200
H187        H  0.05454971  0.30831100  0.24930202     0.14800
H188        H  0.50909699  0.25204700  0.34212799     0.14600
C189        C  0.20839112  0.49429763  0.21125748     0.86300
C190        C  0.21471937  0.46103479  0.23853485    -0.53900
C191        C  0.24354404  0.46136967  0.26542100     0.09300
C192        C  0.26421095  0.49605672  0.26173937     0.20200
C193        C  0.20772309  0.02527911  0.24572187    -0.54600
C194        C  0.23676142  0.02737866  0.27148330     0.09400
C195        C  0.24195992  0.49826529  0.18362548    -0.54100
C196        C  0.27120279  0.49957990  0.20994957     0.09900
H197        H  0.19776277  0.43872845  0.23641345     0.14500
H198        H  0.28777274  0.49727135  0.28303004     0.00200
H199        H  0.18779545  0.04484293  0.24787150     0.14800
H200        H  0.24313550  0.49876783  0.14648767     0.14600
C201        C  0.04556705  0.24859562  0.71574373     0.86300
C202        C  0.03898613  0.28202062  0.74365871    -0.53900
C203        C  0.50764641  0.28016612  0.76757220     0.09300
C204        C  0.48615480  0.24629314  0.76076652     0.20200
C205        C  0.04236447  0.21886973  0.75040564    -0.54600
C206        C  0.50978787  0.21557584  0.77316635     0.09400
C207        C  0.51196410  0.24253293  0.68492754    -0.54100
C208        C  0.48146578  0.24249490  0.70824563     0.09900
H209        H  0.05651995  0.30392037  0.74383702     0.14500
H210        H  0.46187452  0.24620986  0.78000707     0.00200
H211        H  0.05997000  0.19731305  0.75285386     0.14800
H212        H  0.51343211  0.24092931  0.64778335     0.14600
C213        C  0.20788091  0.49868435  0.77753326     0.86300
C214        C  0.20917663  0.02860617  0.74253940    -0.53900
C215        C  0.23861072  0.02982451  0.71822481     0.09300
C216        C  0.26392276  0.49944035  0.72878889     0.20200
C217        C  0.21282452  0.46664221  0.74577357    -0.54600
C218        C  0.24178259  0.46625296  0.71965635     0.09400
C219        C  0.24106363  0.49869149  0.80662994    -0.54100
C220        C  0.27034060  0.49955718  0.78120594     0.09900
H221        H  0.19037748  0.04930503  0.74145633     0.14500
H222        H  0.28752039  0.50114271  0.70844805     0.00200
H223        H  0.19684933  0.44381502  0.74797073     0.14800
H224        H  0.24153119  0.49785802  0.84386421     0.14600
C225        C  0.11069975  0.50374834  0.13537243    -0.00300
C226        C  0.11137117  0.48935629  0.17937676    -0.12200
C227        C  0.14224922  0.48624738  0.20442404     0.01900
C228        C  0.17410477  0.49543831  0.18447088    -0.00400
C229        C  0.17116918  0.01122374  0.13992935    -0.12100
C230        C  0.14067247  0.01490279  0.11516137     0.01800
H231        H  0.08775184  0.48053740  0.19438410     0.14800
H232        H  0.19391310  0.02213108  0.12526427     0.14800
C233        C  0.14321132  0.03249940  0.07180206     0.36500
C234        C  0.14000199  0.47506166  0.25137773     0.36400
N235        N  0.14619472  0.04649346  0.03718035    -0.43900
N236        N  0.13802492  0.46639489  0.28914303    -0.43900
C237        C  0.30616714  0.50400839  0.18972877    -0.00300
C238        C  0.33257112  0.48066817  0.20080235    -0.12200
C239        C  0.36426519  0.48152690  0.17793059     0.01900
C240        C  0.37017266  0.50634745  0.14351221    -0.00400
C241        C  0.34228797  0.03242626  0.13314611    -0.12100
C242        C  0.31084972  0.03191146  0.15594784     0.01800
H243        H  0.32785561  0.46059944  0.22572815     0.14800
H244        H  0.34610463  0.05092469  0.10588345     0.14800
C245        C  0.28608975  0.05832228  0.14477311     0.36500
C246        C  0.38925749  0.45516317  0.18797805     0.36400
N247        N  0.26669073  0.07988590  0.13581788    -0.43900
N248        N  0.40926171  0.43396628  0.19599688    -0.43900
C249        C  0.48902852  0.37851003  0.13795478    -0.00300
C250        C  0.49559576  0.38245185  0.18528544    -0.12200
C251        C  0.50075692  0.35333985  0.21346181     0.01900
C252        C  0.49958717  0.31902613  0.19459814    -0.00400
C253        C  0.98943001  0.31594367  0.14893129    -0.12100
C254        C  0.98526524  0.34478828  0.12027890     0.01800
H255        H  0.49734924  0.40836521  0.20035904     0.14800
H256        H  0.98706671  0.28985760  0.13449180     0.14800
C257        C  0.97620306  0.33694897  0.07302520     0.36500
C258        C  0.50670886  0.35954497  0.26188762     0.36400
N259        N  0.96878109  0.33038522  0.03532043    -0.43900
N260        N  0.51141483  0.36483019  0.30065830    -0.43900
C261        C  0.50275793  0.19102985  0.18902789    -0.00300
C262        C  0.48181352  0.16408339  0.20528352    -0.12200
C263        C  0.47839485  0.13201556  0.18088934     0.01900
C264        C  0.49609147  0.12639925  0.13926635    -0.00400
C265        C  0.00885108  0.15833316  0.11621513    -0.12100
C266        C  0.01219621  0.18969648  0.14128292     0.01800
H267        H  0.46864852  0.16783233  0.23757807     0.14800
H268        H  0.01822052  0.15745704  0.08128651     0.14800
C269        C  0.02850802  0.21899212  0.12005636     0.36500
C270        C  0.45595630  0.10572801  0.19849971     0.36400
N271        N  0.04162440  0.24251994  0.10325384    -0.43900
N272        N  0.43798942  0.08452790  0.21243896    -0.43900
C273        C  0.09722541  0.39059683  0.99804772    -0.00300
C274        C  0.09251909  0.36705319  0.03355719    -0.12200
C275        C  0.11666446  0.34174899  0.04199624     0.01900
C276        C  0.14564998  0.33976255  0.01409007    -0.00400
C277        C  0.15016394  0.36314642  0.97808626    -0.12100
C278        C  0.12630188  0.38905334  0.97029740     0.01800
H279        H  0.07017125  0.36885167  0.05521763     0.14800
H280        H  0.17246430  0.36120686  0.95641336     0.14800
C281        C  0.13186377  0.41328639  0.93363960     0.36500
C282        C  0.11096442  0.31792963  0.07892980     0.36400
N283        N  0.13634497  0.43287153  0.90452051    -0.43900
N284        N  0.10614024  0.29839702  0.10795071    -0.43900
C285        C  0.36939358  0.39414462  0.99746078    -0.00300
C286        C  0.34299212  0.39456872  0.96472810    -0.12200
C287        C  0.31677059  0.37006855  0.96637583     0.01900
C288        C  0.31760229  0.34462630  0.00068335    -0.00400
C289        C  0.34333280  0.34505985  0.03411326    -0.12100
C290        C  0.36879968  0.37011220  0.03332025     0.01800
H291        H  0.34295955  0.41391226  0.93799289     0.14800
H292        H  0.34291192  0.32629401  0.06155368     0.14800
C293        C  0.39202633  0.37274773  0.07185984     0.36500
C294        C  0.28931512  0.37166807  0.93313158     0.36400
N295        N  0.40987543  0.37544741  0.10349931    -0.43900
N296        N  0.26716826  0.37329569  0.90676257    -0.43900
C297        C  0.32289200  0.16662011  0.00463159    -0.00300
C298        C  0.35200220  0.17039868  0.03228473    -0.12200
C299        C  0.37799554  0.14583971  0.03020173     0.01900
C300        C  0.37457812  0.11673257  0.00030613    -0.00400
C301        C  0.34537902  0.11307578  0.97256769    -0.12100
C302        C  0.31979945  0.13811286  0.97392980     0.01800
H303        H  0.35416612  0.19244933  0.05586956     0.14800
H304        H  0.34284741  0.09093031  0.94921362     0.14800
C305        C  0.29089131  0.13436119  0.94324350     0.36500
C306        C  0.40709722  0.15068102  0.06028201     0.36400
N307        N  0.26767626  0.13148785  0.91872324    -0.43900
N308        N  0.43023670  0.15513227  0.08453530    -0.43900
C309        C  0.09821479  0.11363045  0.00166843    -0.00300
C310        C  0.10216325  0.12697704  0.04643244    -0.12200
C311        C  0.12854492  0.15005257  0.05702801     0.01900
C312        C  0.15114525  0.15972241  0.02232244    -0.00400
C313        C  0.14770966  0.14571354  0.97781414    -0.12100
C314        C  0.12123609  0.12277267  0.96712550     0.01800
H315        H  0.08468165  0.11919921  0.07309216     0.14800
H316        H  0.16491219  0.15393600  0.95107549     0.14800
C317        C  0.11717753  0.11069963  0.92021095     0.36500
C318        C  0.13180522  0.16373106  0.10330139     0.36400
N319        N  0.11413153  0.10181823  0.88224762    -0.43900
N320        N  0.13440357  0.17454659  0.14047444    -0.43900
C321        C  0.36644018  0.99971480  0.84639137    -0.00300
C322        C  0.34494958  0.02881632  0.84743088    -0.12200
C323        C  0.31337152  0.02852569  0.82457487     0.01900
C324        C  0.30499715  0.50060577  0.80242276    -0.00400
C325        C  0.32269168  0.46936529  0.80957491    -0.12100
C326        C  0.35502472  0.46943061  0.83082512     0.01800
H327        H  0.35257021  0.05170694  0.86726755     0.14800
H328        H  0.31091476  0.44486185  0.79942764     0.14800
C329        C  0.37169774  0.43667716  0.83952697     0.36500
C330        C  0.29282693  0.05950245  0.82723037     0.36400
N331        N  0.38525620  0.41056463  0.84663125    -0.43900
N332        N  0.27704916  0.08481569  0.82998300    -0.43900
C333        C  0.17365307  0.49996650  0.80410738    -0.00300
C334        C  0.14533102  0.47964071  0.78925638    -0.12200
C335        C  0.11373155  0.48074038  0.81177474     0.01900
C336        C  0.10545158  0.99921857  0.84388736    -0.00400
C337        C  0.13354862  0.01905362  0.85971843    -0.12100
C338        C  0.16505593  0.01896417  0.83720540     0.01800
H339        H  0.14702935  0.46277230  0.75940827     0.14800
H340        H  0.13101191  0.03481199  0.89068649     0.14800
C341        C  0.19110277  0.04200437  0.85523075     0.36500
C342        C  0.08826416  0.45570246  0.79788178     0.36400
N343        N  0.21182887  0.06043713  0.87025083    -0.43900
N344        N  0.06882206  0.43467845  0.78630631    -0.43900
C345        C  0.50100031  0.18488789  0.80222096    -0.00300
C346        C  0.47269999  0.16352577  0.79116295    -0.12200
C347        C  0.46753004  0.13134970  0.81333724     0.01900
C348        C  0.49103061  0.12007364  0.84704761    -0.00400
C349        C  0.01913775  0.14511412  0.85995977    -0.12100
C350        C  0.02452229  0.17704286  0.83887898     0.01800
H351        H  0.45512604  0.17153143  0.76442620     0.14800
H352        H  0.03524506  0.13818640  0.88888966     0.14800
C353        C  0.05156157  0.19914929  0.85650192     0.36500
C354        C  0.43763229  0.11099537  0.80197334     0.36400
N355        N  0.07330034  0.21658468  0.87101358    -0.43900
N356        N  0.41355872  0.09480368  0.79282574    -0.43900
C357        C  0.49698528  0.31247504  0.79400703    -0.00300
C358        C  0.49889787  0.34539766  0.77323947    -0.12200
C359        C  0.49329152  0.37670811  0.79835708     0.01900
C360        C  0.48707705  0.37590053  0.84624990    -0.00400
C361        C  0.98349030  0.34533058  0.86466674    -0.12100
C362        C  0.98812340  0.31409040  0.83971321     0.01800
H363        H  0.50503851  0.34667681  0.73705965     0.14800
H364        H  0.97686404  0.34347036  0.90060680     0.14800
C365        C  0.98373495  0.28160363  0.86316828     0.36500
C366        C  0.49394653  0.40899020  0.77378078     0.36400
N367        N  0.97986991  0.25561720  0.88198520    -0.43900
N368        N  0.49428015  0.43477472  0.75378739    -0.43900
C369        C  0.44694004  0.23899122  0.68565865    -0.00300
C370        C  0.41920576  0.25841140  0.70304279    -0.12200
C371        C  0.38685112  0.25737396  0.68153434     0.01900
C372        C  0.38189336  0.23712607  0.64120560    -0.00400
C373        C  0.40884095  0.21592433  0.62590691    -0.12100
C374        C  0.44080706  0.21640587  0.64761070     0.01800
H375        H  0.42299447  0.27545235  0.73264693     0.14800
H376        H  0.40509587  0.19921041  0.59588348     0.14800
C377        C  0.46636211  0.19283857  0.63005376     0.36500
C378        C  0.35969958  0.27834756  0.70033160     0.36400
N379        N  0.48650284  0.17383976  0.61533197    -0.43900
N380        N  0.33772900  0.29486726  0.71545882    -0.43900
C381        C  0.08001968  0.25035212  0.68956277    -0.00300
C382        C  0.10916224  0.23166743  0.70462616    -0.12200
C383        C  0.14044665  0.23261632  0.68114984     0.01900
C384        C  0.14403571  0.25331224  0.64198874    -0.00400
C385        C  0.11594678  0.27370704  0.62861945    -0.12100
C386        C  0.08468800  0.27276444  0.65183017     0.01800
H387        H  0.10842886  0.21639305  0.73532816     0.14800
H388        H  0.11825791  0.29042168  0.59911920     0.14800
C389        C  0.05796333  0.29533205  0.63558497     0.36500
C390        C  0.16780345  0.21072926  0.69697482     0.36400
N391        N  0.03678725  0.31347907  0.62198961    -0.43900
N392        N  0.18945474  0.19291728  0.70993063    -0.43900
C393        C  0.25584375  0.12306758  0.63834553    -0.00300
C394        C  0.25212426  0.08977049  0.61692306    -0.12200
C395        C  0.24816058  0.05923367  0.64223689     0.01900
C396        C  0.24735138  0.06098828  0.69037351    -0.00400
C397        C  0.25180490  0.09365165  0.71219647    -0.12100
C398        C  0.25677817  0.12430040  0.68698186     0.01800
H399        H  0.25163822  0.08723623  0.57981132     0.14800
H400        H  0.25096485  0.09530256  0.74926222     0.14800
C401        C  0.26303218  0.15626307  0.71225101     0.36500
C402        C  0.24301672  0.02655233  0.61795995     0.36800
N403        N  0.26828507  0.18169868  0.73291436    -0.43900
N404        N  0.23877378  0.00031894  0.59869370    -0.43900
C405        C  0.26114746  0.36865917  0.64352002    -0.00300
C406        C  0.28881168  0.38962060  0.65776029    -0.12200
C407        C  0.28384461  0.42168251  0.68150166     0.01900
C408        C  0.25031702  0.43416645  0.69031972    -0.00400
C409        C  0.22295123  0.41352462  0.67335337    -0.12100
C410        C  0.22801044  0.38111978  0.65163443     0.01800
H411        H  0.31446562  0.38104870  0.64990703     0.14800
H412        H  0.19697573  0.42255419  0.67702873     0.14800
C413        C  0.19848359  0.36116347  0.63719198     0.36500
C414        C  0.31392081  0.44062801  0.69574265     0.36400
N415        N  0.17483203  0.34512954  0.62575653    -0.43900
N416        N  0.33859800  0.45537849  0.70618491    -0.43900
C417        C  0.41830379  0.07581492  0.51687720    -0.00300
C418        C  0.40700082  0.08306396  0.47218327    -0.12200
C419        C  0.38080980  0.10694682  0.46488324     0.01900
C420        C  0.36603338  0.12410118  0.50271587    -0.00400
C421        C  0.37710926  0.11685785  0.54735994    -0.12100
C422        C  0.40323799  0.09297101  0.55477991     0.01800
H423        H  0.41910686  0.07044519  0.44302067     0.14800
H424        H  0.36601833  0.13073356  0.57633215     0.14800
C425        C  0.41542475  0.08815132  0.60119574     0.36500
C426        C  0.37044424  0.11461753  0.41845569     0.36400
N427        N  0.42528918  0.08507749  0.63847335    -0.43900
N428        N  0.36227236  0.12118720  0.38132386    -0.43900
C429        C  0.09361003  0.09211036  0.51131007    -0.00300
C430        C  0.09499502  0.11101786  0.47065718    -0.12200
C431        C  0.12013110  0.13619276  0.46514489     0.01900
C432        C  0.14365141  0.14245504  0.50103704    -0.00400
C433        C  0.14191070  0.12389611  0.54183257    -0.12100
C434        C  0.11698268  0.09870967  0.54725575     0.01800
H435        H  0.07717953  0.10523189  0.44288994     0.14800
H436        H  0.16029327  0.12889501  0.56921976     0.14800
C437        C  0.11607216  0.07956674  0.58951987     0.36500
C438        C  0.12288361  0.15322821  0.42149573     0.36400
N439        N  0.11529722  0.06415295  0.62330648    -0.43900
N440        N  0.12521481  0.16630152  0.38614034    -0.43900
C441        C  0.10777537  0.41611700  0.52154984    -0.00300
C442        C  0.10342493  0.39262004  0.48473926    -0.12200
C443        C  0.12883020  0.36871638  0.47388082     0.01900
C444        C  0.15925060  0.36859368  0.49993115    -0.00400
C445        C  0.16451187  0.39375774  0.53461187    -0.12100
C446        C  0.13875178  0.41707681  0.54627794     0.01800
H447        H  0.08001612  0.39294798  0.46465424     0.14800
H448        H  0.18817283  0.39412246  0.55406710     0.14800
C449        C  0.14424740  0.44084800  0.58452886     0.36500
C450        C  0.12353404  0.34565091  0.43489692     0.36400
N451        N  0.14885544  0.45971842  0.61531664    -0.43900
N452        N  0.11901756  0.32776014  0.40312035    -0.43900
C453        C  0.38402385  0.34918296  0.50560836    -0.00300
C454        C  0.38288472  0.37192868  0.54353768    -0.12200
C455        C  0.40917903  0.39545500  0.55178133     0.01900
C456        C  0.43642166  0.39696888  0.52080421    -0.00400
C457        C  0.43828547  0.37333510  0.48379764    -0.12100
C458        C  0.41238032  0.34905225  0.47624017     0.01800
H459        H  0.36147666  0.37113155  0.56687664     0.14800
H460        H  0.45932995  0.37480225  0.45997014     0.14800
C461        C  0.41469591  0.32564144  0.43710361     0.36500
C462        C  0.40752362  0.41811309  0.59170986     0.36400
N463        N  0.41685481  0.30697519  0.40570843    -0.43900
N464        N  0.40621041  0.43606108  0.62391504    -0.43900
C465        C  0.13888587  0.25058076  0.35377064    -0.00300
C466        C  0.13855432  0.25327048  0.30571065    -0.12200
C467        C  0.10750358  0.25435959  0.28056155     0.01900
C468        C  0.07536405  0.25331552  0.30317565    -0.00400
C469        C  0.07609335  0.25024979  0.35101366    -0.12100
C470        C  0.10649790  0.24830792  0.37598681     0.01800
H471        H  0.16254151  0.25455242  0.28760571     0.14800
H472        H  0.05297139  0.24880286  0.37038790     0.14800
C473        C  0.10233191  0.24349264  0.42490790     0.36500
C474        C  0.10949968  0.25561368  0.23120973     0.36400
N475        N  0.09848261  0.23972966  0.46388662    -0.43900
N476        N  0.11107563  0.25606519  0.19158878    -0.43900
C477        C  0.38166154  0.24171822  0.34756064    -0.00300
C478        C  0.38442816  0.26387797  0.30966515    -0.12200
C479        C  0.41588659  0.26826656  0.28669544     0.01900
C480        C  0.44529475  0.24950465  0.30059118    -0.00400
C481        C  0.44190415  0.22635974  0.33694855    -0.12100
C482        C  0.41121979  0.22273365  0.36062078     0.01800
H483        H  0.36264711  0.27948033  0.29981378     0.14800
H484        H  0.46378112  0.21126867  0.34781211     0.14800
C485        C  0.41183937  0.20036649  0.39999664     0.36500
C486        C  0.41779475  0.29421945  0.25156675     0.36400
N487        N  0.41309510  0.18317643  0.43220240    -0.43900
N488        N  0.41914536  0.31522023  0.22359431    -0.43900
C489        C  0.26190646  0.36867523  0.34794137    -0.00300
C490        C  0.26774034  0.40257313  0.36626658    -0.12200
C491        C  0.26331495  0.43272743  0.33995725     0.01900
C492        C  0.25305620  0.43001020  0.29352587    -0.00400
C493        C  0.24856548  0.39626707  0.27446081    -0.12100
C494        C  0.25271793  0.36600373  0.30081330     0.01800
H495        H  0.27498543  0.40591437  0.40206114     0.14800
H496        H  0.24103437  0.39345762  0.23868359     0.14800
C497        C  0.24617714  0.33282173  0.27854887     0.36500
C498        C  0.26737047  0.46616866  0.36256594     0.36400
N499        N  0.24086286  0.30627357  0.26057224    -0.43900
N500        N  0.27065858  0.49293387  0.38082646    -0.43900
C501        C  0.24891986  0.12452736  0.34689656    -0.00300
C502        C  0.22495052  0.09939888  0.36041090    -0.12200
C503        C  0.22201464  0.06718768  0.33763132     0.01900
C504        C  0.24332351  0.05911767  0.30033384    -0.00400
C505        C  0.26714904  0.08417045  0.28618663    -0.12100
C506        C  0.27010672  0.11670236  0.30918515     0.01800
H507        H  0.20864901  0.10478877  0.38959037     0.14800
H508        H  0.28303877  0.07853507  0.25670976     0.14800
C509        C  0.29584352  0.14098902  0.29487911     0.36500
C510        C  0.19718763  0.04238500  0.35342550     0.36400
N511        N  0.31647851  0.16062146  0.28380623    -0.43900
N512        N  0.17747062  0.02220824  0.36568300    -0.43900
O513        O  0.25600754  0.68590198  0.36153472    -0.86600
O514        O  0.26275699  0.68633817  0.62546277    -0.86800
O515        O  0.31015786  0.64289309  0.48947644    -0.88500
O516        O  0.20306870  0.65239383  0.49979876    -0.87200
O517        O  0.16500794  0.69745981  0.49776390    -0.86800
O518        O  0.35424200  0.68202889  0.49215016    -0.88200
O519        O  0.25999161  0.64708658  0.56555907    -0.86700
O520        O  0.25283005  0.64711893  0.42078001    -0.86200
Zr521      Zr  0.25904658  0.67727564  0.49321375     2.84300
O522        O  0.22864401  0.71325705  0.54324117    -1.08200
O523        O  0.29382764  0.70861702  0.44379948    -1.08900
C524        C  0.25274420  0.65461581  0.37789372     1.06500
C525        C  0.26108207  0.65464861  0.60884774     1.06400
C526        C  0.34186365  0.65102579  0.49111396     1.09400
C527        C  0.17282033  0.66509090  0.50026082     1.07200
H528        H  0.30999022  0.69278433  0.55863185     0.32700
O529        O  0.29622741  0.70854993  0.54094763    -1.29200
H530        H  0.21051889  0.69996032  0.42884385     0.32400
O531        O  0.22675927  0.71363010  0.44637400    -1.30900
O532        O  0.26586561  0.80530362  0.62586603    -0.86600
O533        O  0.26085310  0.80574295  0.36234301    -0.88100
O534        O  0.36190433  0.73763570  0.56438452    -0.86700
O535        O  0.16826308  0.75288037  0.56892518    -0.86700
O536        O  0.16611873  0.75213574  0.42689488    -0.86500
O537        O  0.35885564  0.73886938  0.41865769    -0.86300
O538        O  0.32709424  0.83734016  0.50068664    -0.86600
O539        O  0.21836262  0.84807788  0.49762187    -0.86100
O540        O  0.36484368  0.79206630  0.49679291    -0.87200
O541        O  0.17447367  0.80865923  0.49701199    -0.86300
O542        O  0.32464402  0.74274963  0.62463519    -0.86700
O543        O  0.31957454  0.74339462  0.36004372    -0.86400
O544        O  0.20106171  0.75029564  0.36468953    -0.86100
O545        O  0.20769534  0.74774624  0.62709809    -0.86500
O546        O  0.26996894  0.84499184  0.56758106    -0.86800
O547        O  0.26807970  0.84508382  0.42162375    -0.88100
Zr548      Zr  0.26577137  0.74557109  0.59125436     2.83100
Zr549      Zr  0.26135738  0.74590897  0.39618888     2.83500
Zr550      Zr  0.33077993  0.74014671  0.49202816     2.84100
Zr551      Zr  0.19780434  0.75057718  0.49665628     2.83400
Zr552      Zr  0.26983916  0.81429578  0.49443421     2.84200
O553        O  0.23196033  0.78271992  0.44768489    -1.08700
O554        O  0.30119612  0.77733587  0.54159377    -1.08200
C555        C  0.26711208  0.83682362  0.61010517     1.06500
C556        C  0.26366028  0.83756541  0.37850899     1.09100
C557        C  0.35516545  0.73928480  0.60769580     1.06600
C558        C  0.17649318  0.75095515  0.61168041     1.07000
C559        C  0.17089453  0.75223553  0.38357730     1.06600
C560        C  0.35076692  0.74043835  0.37578865     1.06100
C561        C  0.35735621  0.82443420  0.50121972     1.06500
C562        C  0.18666976  0.83975442  0.49801221     1.06100
H563        H  0.31487603  0.79145967  0.42640987     0.32700
O564        O  0.29965449  0.77759623  0.44459387    -1.29800
H565        H  0.22091914  0.79836118  0.56189562     0.32800
O566        O  0.23448817  0.78278262  0.54329981    -1.31200
N567        N  0.06641966  0.00079885  0.52483623    -0.36700
N568        N  0.50940414  0.54752012  0.51208973    -0.57300
N569        N  0.46333765  0.99062979  0.53023144    -0.36700
N570        N  0.52025955  0.94320781  0.53554661    -0.57300
C571        C  0.07898192  0.53146808  0.51544144     0.26800
C572        C  0.08738933  0.97395183  0.51528277     0.26800
C573        C  0.44203292  0.51489830  0.50386168     0.26800
C574        C  0.44897668  0.95996525  0.51783949     0.26800
C575        C  0.03313119  0.57302577  0.53397075     0.35500
C576        C  0.48020422  0.56545508  0.51681130     0.35500
C577        C  0.05010147  0.92688472  0.54243928     0.35500
C578        C  0.49483070  0.92074404  0.54372297     0.35500
C579        C  0.10896369  0.52340320  0.49279053    -0.22000
C580        C  0.11633863  0.98584665  0.49337997    -0.22000
C581        C  0.41244242  0.49990780  0.48615296    -0.22000
C582        C  0.41880318  0.96578089  0.49404750    -0.22000
C583        C  0.02036043  0.60599873  0.54257324    -0.23100
C584        C  0.48707920  0.60053902  0.52428773    -0.23100
C585        C  0.04406765  0.89420761  0.56011785    -0.23100
C586        C  0.50777904  0.88943892  0.55913844    -0.23100
C587        C  0.06719800  0.56534922  0.52391976    -0.18400
C588        C  0.08183954  0.93937242  0.52824186    -0.18400
C589        C  0.46082175  0.92700825  0.53119975    -0.18400
C590        C  0.44768933  0.55088692  0.50955811    -0.18400
H591        H  0.12645895  0.54119052  0.47671291     0.14500
H592        H  0.13804984  0.97078576  0.48195836     0.14500
H593        H  0.39003447  0.51276722  0.47291054     0.14500
H594        H  0.40129371  0.94650714  0.48005246     0.14500
H595        H  0.03443579  0.63018839  0.54531721     0.12800
H596        H  0.46910006  0.62171216  0.52760502     0.12800
H597        H  0.06273066  0.87460210  0.56872153     0.12800
H598        H  0.49368982  0.86610432  0.56712554     0.12800
H599        H  0.04516761  0.00023011  0.54589927     0.26000
H600        H  0.48381352  0.99396029  0.55286689     0.26000
O601        O  0.48574437  0.93756502  0.86322313    -0.86600
O602        O  0.48765906  0.94273058  0.12654979    -0.86800
O603        O  0.03725810  0.90432680  0.99562921    -0.88500
O604        O  0.42885045  0.90474864  0.00048972    -0.87200
O605        O  0.38837251  0.94762088  0.99766069    -0.86800
O606        O  0.07917150  0.94559979  0.99093354    -0.88200
O607        O  0.48584976  0.90348804  0.06671292    -0.86700
O608        O  0.48427080  0.89965421  0.92306083    -0.86200
Zr609      Zr  0.48410428  0.93246476  0.99463730     2.84300
O610        O  0.45177429  0.96808861  0.04315961    -1.08200
O611        O  0.01788414  0.96581470  0.94205601    -1.08900
C612        C  0.48542866  0.90612845  0.87979155     1.06500
C613        C  0.48704472  0.91090342  0.10975471     1.06400
C614        C  0.06858943  0.91421984  0.99527713     1.09400
C615        C  0.39791154  0.91583872  0.00100022     1.07200
H616        H  0.03332686  0.95385233  0.05653616     0.32700
O617        O  0.01869841  0.96845625  0.03833902    -1.29200
H618        H  0.43528587  0.95067633  0.92864403     0.32400
O619        O  0.45018868  0.96582798  0.94638166    -1.30900
O620        O  0.49400429  0.56299530  0.12501938    -0.86600
O621        O  0.48960609  0.55809995  0.86120410    -0.88100
O622        O  0.08282218  0.00110956  0.06030987    -0.86700
O623        O  0.38977449  0.00554148  0.06874271    -0.86700
O624        O  0.39114664  0.50456320  0.92011486    -0.86500
O625        O  0.08491250  0.50421941  0.92228109    -0.86300
O626        O  0.03984550  0.60130403  0.99513221    -0.86600
O627        O  0.43509378  0.60171258  0.99642177    -0.86100
O628        O  0.08089316  0.55899526  0.99501971    -0.87200
O629        O  0.39269243  0.56087345  0.99407603    -0.86300
O630        O  0.04663426  0.00345690  0.12162055    -0.86700
O631        O  0.04667914  0.50105827  0.86225855    -0.86400
O632        O  0.43002463  0.49977650  0.86139951    -0.86100
O633        O  0.42934694  0.00473132  0.12754446    -0.86500
O634        O  0.49352102  0.60132674  0.06538998    -0.86800
O635        O  0.48980709  0.59815682  0.92080850    -0.88100
Zr636      Zr  0.48716916  0.00265443  0.09193621     2.83100
Zr637      Zr  0.48747622  0.49963164  0.89668296     2.83500
Zr638      Zr  0.05170714  0.00131021  0.98901282     2.84100
Zr639      Zr  0.41820532  0.00217948  0.99484121     2.83400
Zr640      Zr  0.48832288  0.56991453  0.99376219     2.84200
O641        O  0.45404973  0.53642979  0.94477821    -1.08700
O642        O  0.02057879  0.53791010  0.04070894    -1.08200
C643        C  0.49561163  0.59438223  0.10837208     1.06500
C644        C  0.49087982  0.58969776  0.87793940     1.09100
C645        C  0.07710173  0.00257653  0.10365138     1.06600
C646        C  0.39816101  0.00610915  0.11174990     1.07000
C647        C  0.39929179  0.50195440  0.87739063     1.06600
C648        C  0.07766689  0.50282688  0.87923331     1.06100
C649        C  0.07079659  0.59068013  0.99654921     1.06500
C650        C  0.40357266  0.59241652  0.99628196     1.06100
H651        H  0.03501877  0.55241841  0.92649594     0.32700
O652        O  0.02035793  0.53769342  0.94428109    -1.29800
H653        H  0.44108417  0.55338182  0.06198250     0.32800
O654        O  0.45470333  0.53783632  0.04332012    -1.31200
N655        N  0.28528012  0.75433466  0.03011740    -0.36700
N656        N  0.23567432  0.70053735  0.03022337    -0.57300
N657        N  0.18175795  0.75205398  0.04056279    -0.36700
N658        N  0.23201769  0.80578844  0.03963429    -0.57300
C659        C  0.30373001  0.72724152  0.01396029     0.26800
C660        C  0.30183989  0.78343483  0.01802534     0.26800
C661        C  0.16429549  0.72369481  0.02620813     0.26800
C662        C  0.16220761  0.77981138  0.03059720     0.26800
C663        C  0.26374925  0.68072809  0.03405974     0.35500
C664        C  0.20915015  0.67965718  0.03889835     0.35500
C665        C  0.25923874  0.82685007  0.04409593     0.35500
C666        C  0.20458081  0.82550619  0.04898659     0.35500
C667        C  0.33247014  0.73921570  0.99181799    -0.22000
C668        C  0.33136088  0.77479433  0.99453987    -0.22000
C669        C  0.13289955  0.73334014  0.00824778    -0.22000
C670        C  0.13169821  0.76887614  0.01065879    -0.22000
C671        C  0.25515083  0.64711508  0.04603997    -0.23100
C672        C  0.22024762  0.64636029  0.04876831    -0.23100
C673        C  0.24922995  0.86011831  0.05710849    -0.23100
C674        C  0.21437558  0.85924647  0.06030537    -0.23100
C675        C  0.29623796  0.69200850  0.02118894    -0.18400
C676        C  0.29206205  0.81751726  0.02991805    -0.18400
C677        C  0.17104949  0.81472238  0.03959868    -0.18400
C678        C  0.17530494  0.68924246  0.03097749    -0.18400
H679        H  0.35231638  0.72392139  0.97569142     0.14500
H680        H  0.35029324  0.79227836  0.98098551     0.14500
H681        H  0.11296356  0.71659382  0.99452555     0.14500
H682        H  0.11075896  0.78475692  0.99878066     0.14500
H683        H  0.27208604  0.62519220  0.05036475     0.12800
H684        H  0.20475527  0.62371775  0.05553788     0.12800
H685        H  0.26518212  0.88293888  0.06153660     0.12800
H686        H  0.19800849  0.88125057  0.06766697     0.12800
H687        H  0.26491642  0.75310703  0.05269103     0.26000
H688        H  0.20428716  0.75209067  0.05967911     0.26000
C689        C  0.04127746  0.75466360  0.27597297     0.86300
C690        C  0.03856009  0.72402211  0.24195460    -0.53900
C691        C  0.51172370  0.72231520  0.21772436     0.09300
C692        C  0.48765374  0.75391674  0.22575403     0.20200
C693        C  0.03703525  0.78734293  0.24720384    -0.54600
C694        C  0.50994086  0.78735501  0.22179879     0.09400
C695        C  0.50840778  0.75276576  0.30446254    -0.54100
C696        C  0.47949855  0.75242079  0.27734535     0.09900
H697        H  0.05709371  0.70306423  0.24065927     0.14500
H698        H  0.46475747  0.75327964  0.20317509     0.00200
H699        H  0.05560758  0.80832797  0.24796181     0.14800
H700        H  0.50605653  0.75146797  0.34129830     0.14600
C701        C  0.20666123  0.99536295  0.21066582     0.86300
C702        C  0.21326450  0.96228315  0.23831452    -0.53900
C703        C  0.24204726  0.96279453  0.26540359     0.09300
C704        C  0.26246240  0.99769184  0.26133552     0.20200
C705        C  0.20964594  0.52401624  0.24646383    -0.54600
C706        C  0.23857628  0.52582607  0.27230078     0.09400
C707        C  0.24028021  0.99954824  0.18315442    -0.54100
C708        C  0.26945278  0.00136306  0.20956582     0.09900
H709        H  0.19648246  0.93985790  0.23613037     0.14500
H710        H  0.28599985  0.99927912  0.28260330     0.00200
H711        H  0.18977220  0.54362954  0.24885956     0.14800
H712        H  0.24159224  0.99996563  0.14603716     0.14600
C713        C  0.04846393  0.74925496  0.71847041     0.86300
C714        C  0.04098048  0.78266812  0.74617317    -0.53900
C715        C  0.50983143  0.77937202  0.76892031     0.09300
C716        C  0.48912216  0.74507497  0.76230275     0.20200
C717        C  0.04461005  0.71968645  0.75314813    -0.54600
C718        C  0.51367955  0.71532479  0.77534915     0.09400
C719        C  0.51517314  0.74097017  0.68670856    -0.54100
C720        C  0.48456440  0.74064909  0.70973182     0.09900
H721        H  0.05834457  0.80470763  0.74757774     0.14500
H722        H  0.46481986  0.74458126  0.78152170     0.00200
H723        H  0.06250689  0.69858462  0.75729370     0.14800
H724        H  0.51672114  0.73876296  0.64960806     0.14600
C725        C  0.20519888  0.99653844  0.77256330     0.86300
C726        C  0.21128939  0.53027890  0.74648791    -0.53900
C727        C  0.24036341  0.53129064  0.72136642     0.09300
C728        C  0.26197127  0.99782094  0.72531555     0.20200
C729        C  0.21037389  0.96510457  0.74018471    -0.54600
C730        C  0.23980446  0.96485306  0.71479406     0.09400
C731        C  0.23812190  0.99578536  0.80236151    -0.54100
C732        C  0.26783190  0.99697900  0.77781012     0.09900
H733        H  0.19243006  0.55092852  0.74549495     0.14500
H734        H  0.28570088  0.00018981  0.70556738     0.00200
H735        H  0.19396523  0.94259171  0.74212841     0.14800
H736        H  0.23817077  0.99408917  0.83950695     0.14600
C737        C  0.10911615  0.00287106  0.13295897    -0.00300
C738        C  0.10963874  0.98911711  0.17740355    -0.12200
C739        C  0.14045272  0.98632837  0.20286138     0.01900
C740        C  0.17237900  0.99591379  0.18338040    -0.00400
C741        C  0.17277276  0.51170649  0.14169020    -0.12100
C742        C  0.14209631  0.51636659  0.11774235     0.01800
H743        H  0.08598217  0.98029661  0.19230980     0.14800
H744        H  0.19553481  0.52276886  0.12721724     0.14800
C745        C  0.14421071  0.53581776  0.07575456     0.36500
C746        C  0.13818950  0.97430542  0.24943848     0.36400
N747        N  0.14687659  0.55145078  0.04234511    -0.43900
N748        N  0.13644835  0.96465979  0.28679774    -0.43900
C749        C  0.30440264  0.00661297  0.18963334    -0.00300
C750        C  0.33160570  0.98510004  0.20320775    -0.12200
C751        C  0.36349151  0.98623797  0.18098640     0.01900
C752        C  0.36859411  0.00897820  0.14398569    -0.00400
C753        C  0.34454452  0.53102383  0.13487018    -0.12100
C754        C  0.31312149  0.53026941  0.15762010     0.01800
H755        H  0.32750448  0.96621472  0.22987214     0.14800
H756        H  0.34879703  0.55062659  0.10911654     0.14800
C757        C  0.28852652  0.55703473  0.14740915     0.36500
C758        C  0.38979339  0.96242708  0.19502877     0.36400
N759        N  0.26898404  0.57861196  0.13912328    -0.43900
N760        N  0.41093449  0.94343597  0.20655780    -0.43900
C761        C  0.48871720  0.87938858  0.14036844    -0.00300
C762        C  0.49757211  0.88295374  0.18707916    -0.12200
C763        C  0.50278606  0.85351853  0.21470828     0.01900
C764        C  0.50023419  0.81934015  0.19562129    -0.00400
C765        C  0.99197997  0.81628244  0.14716007    -0.12100
C766        C  0.98816562  0.84518639  0.11861180     0.01800
H767        H  0.50082173  0.90874528  0.20207972     0.14800
H768        H  0.99073868  0.79021182  0.13236324     0.14800
C769        C  0.98300163  0.83712532  0.07038536     0.36500
C770        C  0.50916222  0.85909675  0.26315173     0.36400
N771        N  0.97926057  0.83034414  0.03179854    -0.43900
N772        N  0.51389772  0.86340367  0.30210515    -0.43900
C773        C  0.50440732  0.69080289  0.18869564    -0.00300
C774        C  0.49160337  0.66060145  0.20934276    -0.12200
C775        C  0.48956835  0.62853215  0.18505284     0.01900
C776        C  0.50028672  0.62619804  0.13886739    -0.00400
C777        C  0.01674637  0.65562315  0.11957504    -0.12100
C778        C  0.01929713  0.68757833  0.14328375     0.01800
H779        H  0.48388133  0.66193295  0.24500441     0.14800
H780        H  0.02941559  0.65280959  0.08675427     0.14800
C781        C  0.04018597  0.71462466  0.12410121     0.36500
C782        C  0.47636455  0.59861862  0.20830809     0.36400
N783        N  0.05719321  0.73594734  0.10847554    -0.43900
N784        N  0.46599398  0.57447922  0.22692519    -0.43900
C785        C  0.09439899  0.88809307  0.00440254    -0.00300
C786        C  0.08957287  0.86665144  0.04231978    -0.12200
C787        C  0.11503939  0.84381602  0.05598532     0.01900
C788        C  0.14520353  0.84147495  0.03034498    -0.00400
C789        C  0.14991212  0.86276470  0.99227458    -0.12100
C790        C  0.12507580  0.88662435  0.97969753     0.01800
H791        H  0.06637007  0.86864970  0.06223936     0.14800
H792        H  0.17306229  0.86058141  0.97231998     0.14800
C793        C  0.13166895  0.90903965  0.94138559     0.36500
C794        C  0.10988798  0.82331365  0.09642976     0.36400
N795        N  0.13731339  0.92712748  0.91096558    -0.43900
N796        N  0.10573233  0.80701347  0.12895576    -0.43900
C797        C  0.37110231  0.89050806  0.00822492    -0.00300
C798        C  0.34647892  0.88498867  0.97377224    -0.12200
C799        C  0.31943317  0.86223813  0.98106836     0.01900
C800        C  0.31726396  0.84500794  0.02321631    -0.00400
C801        C  0.34143484  0.85103389  0.05786385    -0.12100
C802        C  0.36817746  0.87401997  0.05084319     0.01800
H803        H  0.34848459  0.89834219  0.94135833     0.14800
H804        H  0.33936883  0.83765627  0.09025796     0.14800
C805        C  0.39092418  0.88192250  0.08875723     0.36500
C806        C  0.29459222  0.85613270  0.94493537     0.36400
N807        N  0.40853048  0.88856469  0.11970452    -0.43900
N808        N  0.27444046  0.85093474  0.91640162    -0.43900
C809        C  0.32360319  0.66626234  0.01363829    -0.00300
C810        C  0.35267151  0.66839540  0.04175084    -0.12200
C811        C  0.37974783  0.64549674  0.03532922     0.01900
C812        C  0.37764079  0.61961881  0.00055052    -0.00400
C813        C  0.34870886  0.61773588  0.97201405    -0.12100
C814        C  0.32184622  0.64108746  0.97794454     0.01800
H815        H  0.35404563  0.68798257  0.06895417     0.14800
H816        H  0.34709845  0.59789990  0.94515196     0.14800
C817        C  0.29298154  0.63884622  0.94693784     0.36500
C818        C  0.40839869  0.64799544  0.06656207     0.36400
N819        N  0.26982302  0.63686629  0.92216899    -0.43900
N820        N  0.43114382  0.65025958  0.09192715    -0.43900
C821        C  0.09691022  0.61649074  0.00377882    -0.00300
C822        C  0.10302689  0.62762079  0.04903701    -0.12200
C823        C  0.12943412  0.65063556  0.05883728     0.01900
C824        C  0.15015795  0.66186694  0.02294239    -0.00400
C825        C  0.14429746  0.65041534  0.97763581    -0.12100
C826        C  0.11735601  0.62794436  0.96767221     0.01800
H827        H  0.08719651  0.61821950  0.07661373     0.14800
H828        H  0.15995839  0.66014021  0.95010059     0.14800
C829        C  0.11026534  0.61820005  0.92043514     0.36500
C830        C  0.13445399  0.66307580  0.10544578     0.36400
N831        N  0.10442692  0.61086149  0.88248052    -0.43900
N832        N  0.13852808  0.67326107  0.14268651    -0.43900
C833        C  0.37005845  0.50116050  0.84526109    -0.00300
C834        C  0.35254668  0.53227965  0.83776664    -0.12200
C835        C  0.32029002  0.53225506  0.81677944     0.01900
C836        C  0.30227045  0.99849098  0.80024617    -0.00400
C837        C  0.32392777  0.96931388  0.79875089    -0.12100
C838        C  0.35589942  0.96978894  0.82136938     0.01800
H839        H  0.36341660  0.55659398  0.85048391     0.14800
H840        H  0.31539304  0.94576136  0.78124277     0.14800
C841        C  0.37662442  0.93877244  0.82093065     0.36500
C842        C  0.30276180  0.56500477  0.81338188     0.36400
N843        N  0.39351352  0.91411080  0.82096644    -0.43900
N844        N  0.28951729  0.59182327  0.81221175    -0.43900
C845        C  0.17051549  0.99716918  0.79830308    -0.00300
C846        C  0.14161556  0.97874891  0.78080803    -0.12200
C847        C  0.10977549  0.97919978  0.80331555     0.01900
C848        C  0.10856933  0.50377368  0.84908191    -0.00400
C849        C  0.13608671  0.52539710  0.86269809    -0.12100
C850        C  0.16787336  0.52410734  0.84059182     0.01800
H851        H  0.14324513  0.96406453  0.74894513     0.14800
H852        H  0.13290708  0.54324893  0.89154834     0.14800
C853        C  0.19394001  0.54820851  0.85618229     0.36500
C854        C  0.08285689  0.95739919  0.78500777     0.36400
N855        N  0.21487844  0.56742619  0.86876824    -0.43900
N856        N  0.06193108  0.93940430  0.76955581    -0.43900
C857        C  0.50536076  0.68465310  0.80400461    -0.00300
C858        C  0.47866857  0.66198473  0.79062836    -0.12200
C859        C  0.47413957  0.62969437  0.81229982     0.01900
C860        C  0.49659148  0.61984249  0.84782673    -0.00400
C861        C  0.02056154  0.64675689  0.86262299    -0.12100
C862        C  0.02597148  0.67852369  0.84107594     0.01800
H863        H  0.46192585  0.66910798  0.76251479     0.14800
H864        H  0.03647827  0.64013381  0.89184091     0.14800
C865        C  0.05293029  0.70092278  0.85836800     0.36500
C866        C  0.44591352  0.60765461  0.79868680     0.36400
N867        N  0.07447455  0.71886776  0.87231600    -0.43900
N868        N  0.42329258  0.58987109  0.78798500    -0.43900
C869        C  0.49879201  0.81101693  0.79619241    -0.00300
C870        C  0.49769263  0.84377235  0.77504299    -0.12200
C871        C  0.49124889  0.87478842  0.80031902     0.01900
C872        C  0.48749945  0.87399464  0.84867316    -0.00400
C873        C  0.98728558  0.84412966  0.86714049    -0.12100
C874        C  0.99285227  0.81325159  0.84219202     0.01800
H875        H  0.50191437  0.84512687  0.73835540     0.14800
H876        H  0.98413385  0.84213434  0.90395142     0.14800
C877        C  0.99355320  0.78094292  0.86675868     0.36500
C878        C  0.48795837  0.90670150  0.77533516     0.36400
N879        N  0.99362889  0.75529813  0.88702378    -0.43900
N880        N  0.48498606  0.93216820  0.75502471    -0.43900
C881        C  0.45013327  0.73714327  0.68636423    -0.00300
C882        C  0.42253357  0.75753476  0.70198076    -0.12200
C883        C  0.39063843  0.75718445  0.67901076     0.01900
C884        C  0.38582327  0.73658524  0.63883644    -0.00400
C885        C  0.41276911  0.71469172  0.62496286    -0.12100
C886        C  0.44419452  0.71426584  0.64852595     0.01800
H887        H  0.42614488  0.77480417  0.73140364     0.14800
H888        H  0.40929334  0.69771138  0.59516111     0.14800
C889        C  0.46920732  0.68893960  0.63399910     0.36500
C890        C  0.36388278  0.77941415  0.69617742     0.36400
N891        N  0.48890686  0.66833457  0.62223457    -0.43900
N892        N  0.34233351  0.79708689  0.71008424    -0.43900
C893        C  0.08334247  0.75115497  0.69322485    -0.00300
C894        C  0.11184678  0.73062856  0.70621574    -0.12200
C895        C  0.14288588  0.73131194  0.68202983     0.01900
C896        C  0.14667528  0.75292303  0.64380975    -0.00400
C897        C  0.11924237  0.77492425  0.63250903    -0.12100
C898        C  0.08856736  0.77493743  0.65721847     0.01800
H899        H  0.11084271  0.71398997  0.73559225     0.14800
H900        H  0.12172387  0.79238172  0.60381990     0.14800
C901        C  0.06307008  0.80037131  0.64533640     0.36500
C902        C  0.16979268  0.70819666  0.69586904     0.36400
N903        N  0.04269955  0.82099352  0.63647559    -0.43900
N904        N  0.19122800  0.68948830  0.70705597    -0.43900
C905        C  0.25945001  0.62357247  0.64009502    -0.00300
C906        C  0.25922897  0.58976565  0.61980236    -0.12200
C907        C  0.25482782  0.55962760  0.64581612     0.01900
C908        C  0.24897070  0.56241527  0.69322769    -0.00400
C909        C  0.24963600  0.59579278  0.71393095    -0.12100
C910        C  0.25661147  0.62588247  0.68850594     0.01800
H911        H  0.26224867  0.58650828  0.58303216     0.14800
H912        H  0.24480600  0.59837886  0.75032824     0.14800
C913        C  0.26225890  0.65811838  0.71347921     0.36500
C914        C  0.25464419  0.52617373  0.62259234     0.36800
N915        N  0.26743851  0.68369054  0.73389473    -0.43900
N916        N  0.25458920  0.49931255  0.60408696    -0.43900
C917        C  0.26160257  0.86692424  0.64158252    -0.00300
C918        C  0.28852412  0.88981644  0.65209778    -0.12200
C919        C  0.28284973  0.92208045  0.67466739     0.01900
C920        C  0.24907859  0.93277988  0.68592111    -0.00400
C921        C  0.22228326  0.91026096  0.67172964    -0.12100
C922        C  0.22824274  0.87752370  0.65177920     0.01800
H923        H  0.31415990  0.88259172  0.64205625     0.14800
H924        H  0.19598201  0.91799139  0.67587182     0.14800
C925        C  0.19924286  0.85570590  0.64066559     0.36500
C926        C  0.31257904  0.94301274  0.68431468     0.36400
N927        N  0.17569692  0.83864107  0.63193967    -0.43900
N928        N  0.33715475  0.95907283  0.69095490    -0.43900
C929        C  0.41844276  0.57462645  0.50560794    -0.00300
C930        C  0.40384307  0.57998691  0.46213987    -0.12200
C931        C  0.37699306  0.60332335  0.45691689     0.01900
C932        C  0.36610683  0.62285685  0.49522472    -0.00400
C933        C  0.38023420  0.61721550  0.53867451    -0.12100
C934        C  0.40594665  0.59279502  0.54435229     0.01800
H935        H  0.41353375  0.56595097  0.43240441     0.14800
H936        H  0.37143645  0.63231841  0.56806792     0.14800
C937        C  0.41993312  0.58789942  0.58983307     0.36500
C938        C  0.36177201  0.60756154  0.41203759     0.36400
N939        N  0.43106876  0.58447307  0.62639840    -0.43900
N940        N  0.34964942  0.61082345  0.37600927    -0.43900
C941        C  0.09219229  0.59366591  0.52043525    -0.00300
C942        C  0.09183694  0.61433380  0.48120173    -0.12200
C943        C  0.11830336  0.63774987  0.47355532     0.01900
C944        C  0.14501283  0.64066241  0.50590076    -0.00400
C945        C  0.14532125  0.62010249  0.54507872    -0.12100
C946        C  0.11912690  0.59657138  0.55257924     0.01800
H947        H  0.07169784  0.61102347  0.45577020     0.14800
H948        H  0.16614534  0.62239465  0.56971861     0.14800
C949        C  0.12101198  0.57477127  0.59250172     0.36500
C950        C  0.11898925  0.65657849  0.43102699     0.36400
N951        N  0.12274475  0.55712482  0.62426453    -0.43900
N952        N  0.11997264  0.67139105  0.39677457    -0.43900
C953        C  0.10948940  0.91427831  0.52090151    -0.00300
C954        C  0.10749077  0.89234336  0.48210012    -0.12200
C955        C  0.13390462  0.86944093  0.47211012     0.01900
C956        C  0.16207075  0.86778056  0.50204255    -0.00400
C957        C  0.16501151  0.89105459  0.53930656    -0.12100
C958        C  0.13878114  0.91429094  0.54911571     0.01800
H959        H  0.08565622  0.89381307  0.45912244     0.14800
H960        H  0.18740735  0.89049450  0.56125119     0.14800
C961        C  0.14234286  0.93777962  0.58805225     0.36500
C962        C  0.13319075  0.85014359  0.42920283     0.36400
N963        N  0.14532453  0.95673673  0.61909438    -0.43900
N964        N  0.13335317  0.83555812  0.39416353    -0.43900
C965        C  0.38540387  0.84867483  0.50988612    -0.00300
C966        C  0.38156177  0.87322864  0.54552576    -0.12200
C967        C  0.40700501  0.89754660  0.55499964     0.01900
C968        C  0.43664423  0.89767986  0.52806757    -0.00400
C969        C  0.44108943  0.87237135  0.49342802    -0.12100
C970        C  0.41571831  0.84768688  0.48425068     0.01800
H971        H  0.35850618  0.87350092  0.56587169     0.14800
H972        H  0.46373887  0.87290008  0.47234236     0.14800
C973        C  0.42042903  0.82320728  0.44666951     0.36500
C974        C  0.40170543  0.92290215  0.59136760     0.36400
N975        N  0.42416407  0.80366010  0.41649631    -0.43900
N976        N  0.39744595  0.94336624  0.62030328    -0.43900
C977        C  0.13817290  0.75450496  0.35567308    -0.00300
C978        C  0.13841252  0.75178867  0.30754754    -0.12200
C979        C  0.10783664  0.75228699  0.28148505     0.01900
C980        C  0.07544849  0.75509034  0.30324143    -0.00400
C981        C  0.07557995  0.75973759  0.35103774    -0.12100
C982        C  0.10564717  0.75906329  0.37711210     0.01800
H983        H  0.16254754  0.74890992  0.29005361     0.14800
H984        H  0.05219503  0.76470791  0.36914264     0.14800
C985        C  0.10111066  0.76361339  0.42617650     0.36500
C986        C  0.11076188  0.74938643  0.23224205     0.36400
N987        N  0.09701530  0.76728477  0.46528030    -0.43900
N988        N  0.11337006  0.74662237  0.19281988    -0.43900
C989        C  0.38095681  0.73927720  0.34412204    -0.00300
C990        C  0.38388560  0.76249689  0.30738456    -0.12200
C991        C  0.41512908  0.76659466  0.28383188     0.01900
C992        C  0.44439124  0.74741671  0.29710915    -0.00400
C993        C  0.44067169  0.72290877  0.33181579    -0.12100
C994        C  0.40988480  0.71869077  0.35503326     0.01800
H995        H  0.36233371  0.77876429  0.29857253     0.14800
H996        H  0.46232470  0.70701849  0.34148354     0.14800
C997        C  0.40947004  0.69325072  0.39092984     0.36500
C998        C  0.41673998  0.79182343  0.24778887     0.36400
N999        N  0.41018768  0.67297612  0.41982309    -0.43900
N1000       N  0.41775621  0.81187618  0.21860297    -0.43900
C1001       C  0.26112235  0.86881093  0.34679234    -0.00300
C1002       C  0.26798181  0.90257617  0.36511473    -0.12200
C1003       C  0.26367002  0.93313433  0.33925089     0.01900
C1004       C  0.25178534  0.93110711  0.29334681    -0.00400
C1005       C  0.24621906  0.89748940  0.27434488    -0.12100
C1006       C  0.25066890  0.86687427  0.30003317     0.01800
H1007       H  0.27641250  0.90547835  0.40050265     0.14800
H1008       H  0.23786843  0.89498345  0.23886182     0.14800
C1009       C  0.24340462  0.83416082  0.27705158     0.36500
C1010       C  0.27063573  0.96617837  0.36162662     0.36400
N1011       N  0.23744676  0.80833043  0.25764877    -0.43900
N1012       N  0.27668640  0.99244530  0.37991542    -0.43900
C1013       C  0.24809768  0.62354118  0.34700240    -0.00300
C1014       C  0.22475737  0.59785535  0.36075141    -0.12200
C1015       C  0.22286710  0.56530089  0.33854377     0.01900
C1016       C  0.24470913  0.55740321  0.30165945    -0.00400
C1017       C  0.26779780  0.58302524  0.28728270    -0.12100
C1018       C  0.26958740  0.61590729  0.30952932     0.01800
H1019       H  0.20818276  0.60306696  0.38970157     0.14800
H1020       H  0.28387291  0.57763200  0.25791730     0.14800
C1021       C  0.29430629  0.64090364  0.29428350     0.36500
C1022       C  0.19854820  0.54003058  0.35452767     0.36400
N1023       N  0.31412448  0.66102137  0.28215645    -0.43900
N1024       N  0.17927188  0.51955273  0.36717518    -0.43900
O1025       O  0.75642825  0.18669945  0.36445173    -0.86600
O1026       O  0.76017269  0.18510541  0.62785448    -0.86800
O1027       O  0.81012192  0.14333236  0.49774469    -0.88500
O1028       O  0.70182569  0.15354903  0.50133951    -0.87200
O1029       O  0.66403675  0.19889454  0.50057216    -0.86800
O1030       O  0.85425569  0.18246643  0.49990914    -0.88200
O1031       O  0.75655962  0.14630294  0.56751303    -0.86700
O1032       O  0.75389237  0.14749543  0.42320871    -0.86200
Zr1033     Zr  0.75843931  0.17737783  0.49614299     2.84300
O1034       O  0.72735848  0.21348299  0.54516253    -1.08200
O1035       O  0.79401977  0.20877807  0.44790211    -1.08900
C1036       C  0.75347374  0.15522553  0.38037487     1.06500
C1037       C  0.75764602  0.15351570  0.61085775     1.06400
C1038       C  0.84185508  0.15150486  0.50025574     1.09400
C1039       C  0.67166372  0.16648858  0.50258993     1.07200
H1040       H  0.80821595  0.19287163  0.56308588     0.32700
O1041       O  0.79486278  0.20865089  0.54488119    -1.29200
H1042       H  0.71070064  0.20044445  0.43078169     0.32400
O1043       O  0.72676333  0.21398150  0.44879107    -1.30900
O1044       O  0.76452326  0.30489752  0.63008200    -0.86600
O1045       O  0.76226425  0.30708876  0.36884862    -0.88100
O1046       O  0.85917173  0.23919703  0.57081945    -0.86700
O1047       O  0.66647514  0.25386743  0.56914170    -0.86700
O1048       O  0.66690498  0.25206819  0.42721826    -0.86500
O1049       O  0.85889731  0.23734514  0.42360136    -0.86300
O1050       O  0.82787927  0.33728837  0.50642516    -0.86600
O1051       O  0.71874724  0.34819179  0.50108346    -0.86100
O1052       O  0.86540237  0.29185745  0.50098643    -0.87200
O1053       O  0.67452123  0.30928719  0.49564039    -0.86300
O1054       O  0.82134734  0.24239727  0.63064681    -0.86700
O1055       O  0.82009028  0.24283851  0.36461694    -0.86400
O1056       O  0.70306479  0.25203517  0.36620719    -0.86100
O1057       O  0.70456834  0.24550350  0.62823443    -0.86500
O1058       O  0.77132136  0.34501367  0.57283018    -0.86800
O1059       O  0.76923860  0.34645416  0.42814901    -0.88100
Zr1060     Zr  0.76355091  0.24510769  0.59493961     2.83100
Zr1061     Zr  0.76222227  0.24645944  0.40016045     2.83500
Zr1062     Zr  0.83042575  0.24024957  0.49694843     2.84100
Zr1063     Zr  0.69749545  0.25131197  0.49821941     2.83400
Zr1064     Zr  0.77029325  0.31453050  0.49954357     2.84200
O1065       O  0.73290432  0.28348622  0.45124964    -1.08700
O1066       O  0.80029523  0.27677679  0.54671950    -1.08200
C1067       C  0.76749102  0.33656942  0.61509621     1.06500
C1068       C  0.76498575  0.33890054  0.38511091     1.09100
C1069       C  0.85197266  0.24000300  0.61397648     1.06600
C1070       C  0.67376124  0.24975103  0.61183362     1.07000
C1071       C  0.67261239  0.25359007  0.38411543     1.06600
C1072       C  0.85103652  0.23908904  0.38063043     1.06100
C1073       C  0.85808690  0.32421395  0.50641459     1.06500
C1074       C  0.68703628  0.34016665  0.49827782     1.06100
H1075       H  0.81568802  0.29179160  0.43144430     0.32700
O1076       O  0.80016721  0.27803889  0.44932761    -1.29800
H1077       H  0.71973958  0.29885081  0.56515326     0.32800
O1078       O  0.73341529  0.28319598  0.54679389    -1.31200
N1079       N  0.56606881  0.50026914  0.51916083    -0.36700
N1080       N  0.00946236  0.04816835  0.52120144    -0.57300
N1081       N  0.96157401  0.49142005  0.54249005    -0.36700
N1082       N  0.01891805  0.44468036  0.54158884    -0.57300
C1083       C  0.58102562  0.02988338  0.51666990     0.26800
C1084       C  0.58728867  0.47352081  0.51035740     0.26800
C1085       C  0.94206469  0.01567302  0.51756596     0.26800
C1086       C  0.94577821  0.46058780  0.53482794     0.26800
C1087       C  0.53435621  0.07146699  0.53222460     0.35500
C1088       C  0.98048629  0.06626429  0.52730006     0.35500
C1089       C  0.54913953  0.42557658  0.53300474     0.35500
C1090       C  0.99434068  0.42178742  0.55220229     0.35500
C1091       C  0.61194392  0.02182354  0.49636755    -0.22000
C1092       C  0.61693129  0.48560309  0.49034363    -0.22000
C1093       C  0.91250311  0.00057293  0.50005562    -0.22000
C1094       C  0.91319997  0.46614878  0.51771348    -0.22000
C1095       C  0.52137758  0.10444519  0.54053846    -0.23100
C1096       C  0.98754828  0.10146222  0.53289641    -0.23100
C1097       C  0.54260080  0.39197691  0.54723726    -0.23100
C1098       C  0.00850429  0.39029434  0.56460370    -0.23100
C1099       C  0.56866414  0.06380539  0.52381623    -0.18400
C1100       C  0.58130258  0.43878400  0.52209980    -0.18400
C1101       C  0.95954691  0.42754242  0.54408337    -0.18400
C1102       C  0.94781574  0.05170994  0.52223219    -0.18400
H1103       H  0.63000232  0.03961653  0.48144719     0.14500
H1104       H  0.63895162  0.47061528  0.47987145     0.14500
H1105       H  0.89016713  0.01346121  0.48659133     0.14500
H1106       H  0.89412679  0.44683838  0.50854163     0.14500
H1107       H  0.53540762  0.12858119  0.54448858     0.12800
H1108       H  0.96961691  0.12264826  0.53668009     0.12800
H1109       H  0.56096703  0.37189849  0.55510535     0.12800
H1110       H  0.99516322  0.36667575  0.57334147     0.12800
H1111       H  0.54416904  0.49945196  0.53897738     0.26000
H1112       H  0.98463756  0.49528445  0.55966187     0.26000
O1113       O  0.98736475  0.44188550  0.85982926    -0.86600
O1114       O  0.98896022  0.44293397  0.12407653    -0.86800
O1115       O  0.53750992  0.40282066  0.99639056    -0.88500
O1116       O  0.93175759  0.40542592  0.99647766    -0.87200
O1117       O  0.89098820  0.44797738  0.99482189    -0.86800
O1118       O  0.58003994  0.44364175  0.99253112    -0.88200
O1119       O  0.98809233  0.40414618  0.06364925    -0.86700
O1120       O  0.98649062  0.40355710  0.91926329    -0.86200
Zr1121     Zr  0.98624707  0.43468240  0.99209746     2.84300
O1122       O  0.95369045  0.46899987  0.04152569    -1.08200
O1123       O  0.52010029  0.46474510  0.94548988    -1.08900
C1124       C  0.98703489  0.41038610  0.87606334     1.06500
C1125       C  0.98864860  0.41120645  0.10692115     1.06400
C1126       C  0.56888141  0.41235917  0.99561914     1.09400
C1127       C  0.90071381  0.41615106  0.99689468     1.07200
H1128       H  0.53439744  0.45165931  0.05924753     0.32700
O1129       O  0.52006690  0.46666918  0.04117797    -1.29200
H1130       H  0.93775064  0.45340923  0.92608935     0.32400
O1131       O  0.95253218  0.46838769  0.94425669    -1.30900
O1132       O  0.99004003  0.06478221  0.12165073    -0.86600
O1133       O  0.98625950  0.05976475  0.85793735    -0.88100
O1134       O  0.58486827  0.49904552  0.06473271    -0.86700
O1135       O  0.89136175  0.50416723  0.06754578    -0.86700
O1136       O  0.88861429  0.00207670  0.91713628    -0.86500
O1137       O  0.58192861  0.99714375  0.92139101    -0.86300
O1138       O  0.54069467  0.09787588  0.99486724    -0.86600
O1139       O  0.93099722  0.09992879  0.99377592    -0.86100
O1140       O  0.58121287  0.05504945  0.99192104    -0.87200
O1141       O  0.88917154  0.05831623  0.99037641    -0.86300
O1142       O  0.54804844  0.50142035  0.12540763    -0.86700
O1143       O  0.54312390  0.99572719  0.86189479    -0.86400
O1144       O  0.92700056  0.99897856  0.85774515    -0.86100
O1145       O  0.93066658  0.50312745  0.12661304    -0.86500
O1146       O  0.98848750  0.10293858  0.06178797    -0.86800
O1147       O  0.98584971  0.09962843  0.91777187    -0.88100
Zr1148     Zr  0.98863017  0.50333176  0.09089719     2.83100
Zr1149     Zr  0.98489983  0.00053947  0.89295349     2.83500
Zr1150     Zr  0.55391906  0.50002991  0.99325109     2.84100
Zr1151     Zr  0.92000194  0.50321039  0.99391612     2.83400
Zr1152     Zr  0.98558941  0.07065342  0.99034901     2.84200
O1153       O  0.95133758  0.03648434  0.94175103    -1.08700
O1154       O  0.52022330  0.03585264  0.04134066    -1.08200
C1155       C  0.99050499  0.09618213  0.10488117     1.06500
C1156       C  0.98712529  0.09144130  0.87479834     1.09100
C1157       C  0.57867110  0.50059548  0.10796923     1.06600
C1158       C  0.89948762  0.50388316  0.11059151     1.07000
C1159       C  0.89627245  0.00011093  0.87418281     1.06600
C1160       C  0.57415656  0.99604503  0.87844758     1.06100
C1161       C  0.57158172  0.08691001  0.99434672     1.06500
C1162       C  0.89970664  0.08987187  0.99296133     1.06100
H1163       H  0.53363011  0.04855828  0.92627409     0.32700
O1164       O  0.51901870  0.03429926  0.94477433    -1.29800
H1165       H  0.93853982  0.05308870  0.05785125     0.32800
O1166       O  0.95247122  0.03771319  0.03939381    -1.31200
N1167       N  0.78474219  0.25404511  0.01069648    -0.36700
N1168       N  0.73534338  0.19979079  0.01920380    -0.57300
N1169       N  0.68281022  0.25066980  0.03270127    -0.36700
N1170       N  0.73340425  0.30515777  0.02441708    -0.57300
C1171       C  0.80228687  0.22648543  0.99447272     0.26800
C1172       C  0.80146384  0.28272272  0.99740571     0.26800
C1173       C  0.66454895  0.22221558  0.02033927     0.26800
C1174       C  0.66324312  0.27840532  0.02307639     0.26800
C1175       C  0.76380170  0.18061698  0.02182184     0.35500
C1176       C  0.70965982  0.17878050  0.03108598     0.35500
C1177       C  0.76071043  0.32635269  0.02679023     0.35500
C1178       C  0.70640338  0.32453220  0.03658898     0.35500
C1179       C  0.83047530  0.23763917  0.97035130    -0.22000
C1180       C  0.82997611  0.27336295  0.97224198    -0.22000
C1181       C  0.63274169  0.23185807  0.00395803    -0.22000
C1182       C  0.63196437  0.26744597  0.00545005    -0.22000
C1183       C  0.75634525  0.14723417  0.03616428    -0.23100
C1184       C  0.72167169  0.14600744  0.04176894    -0.23100
C1185       C  0.75116562  0.35948828  0.04094269    -0.23100
C1186       C  0.71649615  0.35836493  0.04702071    -0.23100
C1187       C  0.79534182  0.19185580  0.00555813    -0.18400
C1188       C  0.79315679  0.31680300  0.01112657    -0.18400
C1189       C  0.67258436  0.31333319  0.03076593    -0.18400
C1190       C  0.67552646  0.18775182  0.02504313    -0.18400
H1191       H  0.84988000  0.22171117  0.95429886     0.14500
H1192       H  0.84888203  0.29044964  0.95778428     0.14500
H1193       H  0.61229729  0.21506616  0.99184838     0.14500
H1194       H  0.61079246  0.28338653  0.99447980     0.14500
H1195       H  0.77378770  0.12567212  0.04004900     0.12800
H1196       H  0.70688084  0.12338525  0.05087650     0.12800
H1197       H  0.76720133  0.38232444  0.04446859     0.12800
H1198       H  0.70035820  0.38019461  0.05607726     0.12800
H1199       H  0.76569099  0.25322094  0.03526966     0.26000
H1200       H  0.70602651  0.25110076  0.05028642     0.26000
C1201       C  0.54335799  0.25509342  0.27665754     0.86300
C1202       C  0.53965897  0.22327196  0.24458813    -0.53900
C1203       C  0.00884932  0.22325477  0.21631731     0.09300
C1204       C  0.98482868  0.25457267  0.22634842     0.20200
C1205       C  0.53890777  0.28681555  0.24626748    -0.54600
C1206       C  0.00690945  0.28828316  0.22266720     0.09400
C1207       C  0.00704861  0.25190089  0.30428338    -0.54100
C1208       C  0.97771446  0.25178800  0.27818215     0.09900
H1209       H  0.55803944  0.20217812  0.24366011     0.14500
H1210       H  0.96148387  0.25431595  0.20459427     0.00200
H1211       H  0.55737796  0.30788769  0.24573686     0.14800
H1212       H  0.00526989  0.25018526  0.34112771     0.14600
C1213       C  0.70810444  0.49320388  0.21426341     0.86300
C1214       C  0.71472649  0.46096738  0.24343438    -0.53900
C1215       C  0.74400715  0.46198995  0.26934102     0.09300
C1216       C  0.76490925  0.49627182  0.26280884     0.20200
C1217       C  0.70832528  0.02410761  0.24854815    -0.54600
C1218       C  0.73779829  0.02670748  0.27323242     0.09400
C1219       C  0.74115857  0.49571220  0.18531273    -0.54100
C1220       C  0.77092210  0.49800219  0.21047514     0.09900
H1221       H  0.69799447  0.43847206  0.24278539     0.14500
H1222       H  0.78876915  0.49791299  0.28346718     0.00200
H1223       H  0.68802917  0.04318953  0.25177970     0.14800
H1224       H  0.74143346  0.49479044  0.14809595     0.14600
C1225       C  0.54416258  0.24577385  0.71586550     0.86300
C1226       C  0.53792952  0.27904017  0.74466011    -0.53900
C1227       C  0.00914409  0.28263886  0.76749015     0.09300
C1228       C  0.98823993  0.24835541  0.76189307     0.20200
C1229       C  0.53975638  0.21581019  0.74993294    -0.54600
C1230       C  0.01263322  0.21832027  0.77419918     0.09400
C1231       C  0.01300791  0.24394095  0.68559639    -0.54100
C1232       C  0.98284297  0.24380303  0.70966179     0.09900
H1233       H  0.55591914  0.30054254  0.74592290     0.14500
H1234       H  0.96420865  0.24795545  0.78167174     0.00200
H1235       H  0.55710434  0.19431560  0.75386743     0.14800
H1236       H  0.01390553  0.24140963  0.64850224     0.14600
C1237       C  0.70630600  0.49808188  0.77665076     0.86300
C1238       C  0.70660932  0.02683015  0.74469693    -0.53900
C1239       C  0.73608782  0.02852256  0.72050689     0.09300
C1240       C  0.76322576  0.49858884  0.72973234     0.20200
C1241       C  0.71247413  0.46537953  0.74680236    -0.54600
C1242       C  0.74166816  0.46484999  0.72119665     0.09400
C1243       C  0.73894030  0.49966729  0.80683017    -0.54100
C1244       C  0.76871608  0.50022402  0.78235940     0.09900
H1245       H  0.68752844  0.04725891  0.74357988     0.14500
H1246       H  0.78713016  0.50044373  0.71021188     0.00200
H1247       H  0.69729854  0.44220406  0.75064428     0.14800
H1248       H  0.73865568  0.50006563  0.84410089     0.14600
C1249       C  0.61031415  0.50127072  0.13783856    -0.00300
C1250       C  0.61096260  0.48633147  0.18157372    -0.12200
C1251       C  0.64177645  0.48345809  0.20700684     0.01900
C1252       C  0.67358382  0.49379535  0.18776617    -0.00400
C1253       C  0.67069087  0.01394569  0.14545414    -0.12100
C1254       C  0.64016543  0.01793224  0.12090036     0.01800
H1255       H  0.58741999  0.47669629  0.19592746     0.14800
H1256       H  0.69308423  0.02673047  0.13238805     0.14800
C1257       C  0.64237547  0.03723913  0.07886471     0.36500
C1258       C  0.63939682  0.47095724  0.25334297     0.36400
N1259       N  0.64559449  0.05241950  0.04519498    -0.43900
N1260       N  0.63722128  0.46099319  0.29050872    -0.43900
C1261       C  0.80543861  0.50240378  0.18875680    -0.00300
C1262       C  0.83284907  0.48094120  0.20180263    -0.12200
C1263       C  0.86447087  0.48193309  0.17875337     0.01900
C1264       C  0.86951667  0.50534096  0.14240917    -0.00400
C1265       C  0.83988640  0.02992146  0.12605270    -0.12100
C1266       C  0.80868431  0.02933424  0.14938596     0.01800
H1267       H  0.82901387  0.46206564  0.22855573     0.14800
H1268       H  0.84226371  0.04622900  0.09614973     0.14800
C1269       C  0.78210153  0.05232848  0.13353229     0.36500
C1270       C  0.89016900  0.45676353  0.19058006     0.36400
N1271       N  0.76110873  0.07086545  0.12028918    -0.43900
N1272       N  0.91055179  0.43631756  0.20008319    -0.43900
C1273       C  0.98963320  0.37963802  0.13778342    -0.00300
C1274       C  0.99592247  0.38357255  0.18521157    -0.12200
C1275       C  0.99976440  0.35443933  0.21383268     0.01900
C1276       C  0.99785724  0.32002922  0.19534696    -0.00400
C1277       C  0.49123138  0.31482251  0.14828797    -0.12100
C1278       C  0.48594394  0.34359772  0.12001648     0.01800
H1279       H  0.99829926  0.40949915  0.20008776     0.14800
H1280       H  0.48987240  0.28870867  0.13364410     0.14800
C1281       C  0.47732265  0.33542594  0.07269912     0.36500
C1282       C  0.00446685  0.36076408  0.26245676     0.36400
N1283       N  0.47020243  0.32832216  0.03505116    -0.43900
N1284       N  0.00790479  0.36623744  0.30141282    -0.43900
C1285       C  0.00068511  0.19205913  0.18677162    -0.00300
C1286       C  0.98637943  0.16217715  0.20653740    -0.12200
C1287       C  0.98311198  0.13048614  0.18142926     0.01900
C1288       C  0.99439297  0.12812268  0.13545113    -0.00400
C1289       C  0.51693434  0.15360001  0.12341797    -0.12100
C1290       C  0.52055523  0.18523363  0.14781379     0.01800
H1291       H  0.97832941  0.16344255  0.24206342     0.14800
H1292       H  0.53074553  0.15009946  0.09156682     0.14800
C1293       C  0.54290236  0.21153346  0.12987507     0.36500
C1294       C  0.96771491  0.10108577  0.20341766     0.36400
N1295       N  0.56073022  0.23267097  0.11549319    -0.43900
N1296       N  0.95539814  0.07741075  0.22092760    -0.43900
C1297       C  0.59425151  0.38572471  0.00217629    -0.00300
C1298       C  0.59239488  0.36614673  0.04219159    -0.12200
C1299       C  0.61843705  0.34327459  0.05332153     0.01900
C1300       C  0.64630841  0.33972382  0.02351848    -0.00400
C1301       C  0.64772407  0.35882913  0.98298593    -0.12100
C1302       C  0.62195946  0.38210845  0.97227951     0.01800
H1303       H  0.57109774  0.36955953  0.06539575     0.14800
H1304       H  0.66882987  0.35517619  0.95956380     0.14800
C1305       C  0.62405275  0.40145364  0.93026880     0.36500
C1306       C  0.61604298  0.32386770  0.09522682     0.36400
N1307       N  0.62566727  0.41699027  0.89665234    -0.43900
N1308       N  0.61379532  0.30845235  0.12887532    -0.43900
C1309       C  0.87388893  0.39019700  0.00056179    -0.00300
C1310       C  0.84970017  0.38733537  0.96505178    -0.12200
C1311       C  0.82259602  0.36404645  0.96837200     0.01900
C1312       C  0.81977282  0.34347819  0.00765495    -0.00400
C1313       C  0.84374885  0.34652237  0.04329664    -0.12100
C1314       C  0.87061199  0.37007280  0.04028840     0.01800
H1315       H  0.85204171  0.40329545  0.93483259     0.14800
H1316       H  0.84119357  0.33069535  0.07360250     0.14800
C1317       C  0.89275649  0.37495956  0.07967281     0.36500
C1318       C  0.79821796  0.36116488  0.93112768     0.36400
N1319       N  0.90972405  0.37910079  0.11196026    -0.43900
N1320       N  0.77852067  0.35863940  0.90147711    -0.43900
C1321       C  0.82262051  0.16630312  0.00081996    -0.00300
C1322       C  0.84417262  0.16138021  0.03858276    -0.12200
C1323       C  0.86961937  0.13632282  0.03665410     0.01900
C1324       C  0.87373967  0.11649703  0.99604835    -0.00400
C1325       C  0.85193695  0.12118440  0.95837386    -0.12100
C1326       C  0.82629176  0.14612581  0.96047478     0.01800
H1327       H  0.84055132  0.17665855  0.06981112     0.14800
H1328       H  0.85501684  0.10539140  0.92747699     0.14800
C1329       C  0.80400411  0.15055273  0.92130418     0.36500
C1330       C  0.88986081  0.13016833  0.07737727     0.36400
N1331       N  0.78613043  0.15416147  0.88994392    -0.43900
N1332       N  0.90567876  0.12519670  0.11032881    -0.43900
C1333       C  0.59812552  0.11265683  0.00059987    -0.00300
C1334       C  0.60474771  0.12432688  0.04552867    -0.12200
C1335       C  0.63090624  0.14791059  0.05440859     0.01900
C1336       C  0.65048574  0.15992430  0.01779446    -0.00400
C1337       C  0.64409914  0.14799365  0.97274903    -0.12100
C1338       C  0.61783585  0.12433153  0.96384498     0.01800
H1339       H  0.58960456  0.11472416  0.07367593     0.14800
H1340       H  0.65903107  0.15794489  0.94463529     0.14800
C1341       C  0.61079625  0.11333818  0.91705008     0.36500
C1342       C  0.63706882  0.15971913  0.10102714     0.36400
N1343       N  0.60501830  0.10479566  0.87949636    -0.43900
N1344       N  0.64205260  0.16915118  0.13840517    -0.43900
C1345       C  0.86635628  0.99968466  0.84267244    -0.00300
C1346       C  0.84561245  0.02936791  0.84223545    -0.12200
C1347       C  0.81301342  0.02858271  0.82218178     0.01900
C1348       C  0.80308841  0.50227938  0.80451898    -0.00400
C1349       C  0.82423411  0.47278625  0.80401875    -0.12100
C1350       C  0.85659013  0.47354074  0.82520710     0.01800
H1351       H  0.85444846  0.05301058  0.85937998     0.14800
H1352       H  0.81494005  0.44875022  0.78850823     0.14800
C1353       C  0.87633331  0.44191443  0.82726892     0.36500
C1354       C  0.79272588  0.05975874  0.82441476     0.36400
N1355       N  0.89239645  0.41676387  0.82952877    -0.43900
N1356       N  0.77689301  0.08504919  0.82691882    -0.43900
C1357       C  0.67162144  0.49891485  0.80229200    -0.00300
C1358       C  0.64442608  0.47611179  0.78956661    -0.12200
C1359       C  0.61304564  0.47621746  0.81276883     0.01900
C1360       C  0.60451373  0.99676180  0.84777779    -0.00400
C1361       C  0.63120583  0.01962085  0.86010180    -0.12100
C1362       C  0.66240325  0.01961075  0.83694204     0.01800
H1363       H  0.64677680  0.45802020  0.76109873     0.14800
H1364       H  0.62770436  0.03775211  0.88856476     0.14800
C1365       C  0.68698602  0.04588842  0.85025613     0.36500
C1366       C  0.58860862  0.44924780  0.80179043     0.36400
N1367       N  0.70633732  0.06726897  0.86108330    -0.43900
N1368       N  0.56960954  0.42699761  0.79330780    -0.43900
C1369       C  0.00369452  0.18713960  0.80176799    -0.00300
C1370       C  0.97754424  0.16436288  0.78666637    -0.12200
C1371       C  0.97225242  0.13193841  0.80789595     0.01900
C1372       C  0.99325947  0.12207464  0.84510733    -0.00400
C1373       C  0.51871910  0.14187934  0.85833281    -0.12100
C1374       C  0.52389713  0.17360624  0.83656608     0.01800
H1375       H  0.96184499  0.17149861  0.75748804     0.14800
H1376       H  0.53641865  0.13416635  0.88511623     0.14800
C1377       C  0.55314590  0.19420582  0.85042249     0.36500
C1378       C  0.94494354  0.10976023  0.79146737     0.36400
N1379       N  0.57675006  0.21046257  0.86145830    -0.43900
N1380       N  0.92302758  0.09212405  0.77790361    -0.43900
C1381       C  0.99830470  0.31489549  0.79352863    -0.00300
C1382       C  0.00071057  0.34764167  0.77248491    -0.12200
C1383       C  0.99490894  0.37904273  0.79706633     0.01900
C1384       C  0.98799403  0.37845992  0.84472918    -0.00400
C1385       C  0.48324678  0.34259949  0.86596793    -0.12100
C1386       C  0.48759266  0.31147884  0.84049668     0.01800
H1387       H  0.00734894  0.34870700  0.73645009     0.14800
H1388       H  0.47733442  0.34050140  0.90210658     0.14800
C1389       C  0.48367671  0.27880535  0.86362663     0.36500
C1390       C  0.99588363  0.41107366  0.77200924     0.36400
N1391       N  0.48022214  0.25261920  0.88210443    -0.43900
N1392       N  0.99644263  0.43649801  0.75125403    -0.43900
C1393       C  0.94800570  0.23969010  0.68811552    -0.00300
C1394       C  0.92047690  0.25943710  0.70544891    -0.12200
C1395       C  0.88792923  0.25827495  0.68442627     0.01900
C1396       C  0.88245816  0.23723966  0.64486029    -0.00400
C1397       C  0.90923437  0.21567542  0.62982047    -0.12100
C1398       C  0.94144455  0.21648592  0.65088722     0.01800
H1399       H  0.92464292  0.27699611  0.73444332     0.14800
H1400       H  0.90519310  0.19849660  0.60032514     0.14800
C1401       C  0.96685485  0.19269035  0.63347613     0.36500
C1402       C  0.86133659  0.28023654  0.70270478     0.36400
N1403       N  0.98686619  0.17349454  0.61886647    -0.43900
N1404       N  0.84010055  0.29779226  0.71773106    -0.43900
C1405       C  0.57880899  0.24684409  0.68961137    -0.00300
C1406       C  0.60540577  0.22251663  0.69770188    -0.12200
C1407       C  0.63660800  0.22340978  0.67405905     0.01900
C1408       C  0.64327517  0.24997644  0.64266476    -0.00400
C1409       C  0.61725945  0.27440256  0.63452376    -0.12100
C1410       C  0.58561672  0.27299258  0.65697701     0.01800
H1411       H  0.60260719  0.20177489  0.72165921     0.14800
H1412       H  0.62131959  0.29436435  0.60921318     0.14800
C1413       C  0.56027313  0.29848506  0.64470008     0.36500
C1414       C  0.65968582  0.19452024  0.67921362     0.36400
N1415       N  0.53993060  0.31878452  0.63451768    -0.43900
N1416       N  0.67735574  0.17065822  0.68290266    -0.43900
C1417       C  0.75535144  0.12206180  0.64156490    -0.00300
C1418       C  0.75603218  0.08840375  0.62071816    -0.12200
C1419       C  0.75125387  0.05791080  0.64596095     0.01900
C1420       C  0.74500551  0.06007632  0.69332656    -0.00400
C1421       C  0.74520272  0.09320518  0.71475814    -0.12100
C1422       C  0.75098785  0.12384286  0.68981754     0.01800
H1423       H  0.75981555  0.08555790  0.58403162     0.14800
H1424       H  0.74036019  0.09520824  0.75125304     0.14800
C1425       C  0.75158098  0.15651669  0.71485185     0.36500
C1426       C  0.75112738  0.02468139  0.62207955     0.36800
N1427       N  0.75192927  0.18262647  0.73519166    -0.43900
N1428       N  0.75100768  0.99791570  0.60331117    -0.43900
C1429       C  0.76257707  0.36664610  0.64711057    -0.00300
C1430       C  0.78963083  0.38951818  0.65746585    -0.12200
C1431       C  0.78423570  0.42158076  0.68086602     0.01900
C1432       C  0.75063755  0.43229458  0.69283859    -0.00400
C1433       C  0.72367569  0.40965497  0.67924663    -0.12100
C1434       C  0.72940940  0.37707539  0.65851444     0.01800
H1435       H  0.81515478  0.38238989  0.64683589     0.14800
H1436       H  0.69741004  0.41725119  0.68422320     0.14800
C1437       C  0.70044862  0.35516173  0.64746292     0.36500
C1438       C  0.81403783  0.44226698  0.69108725     0.36400
N1439       N  0.67733929  0.33753604  0.63850799    -0.43900
N1440       N  0.83862429  0.45817531  0.69831547    -0.43900
C1441       C  0.91867537  0.07552675  0.51754575    -0.00300
C1442       C  0.90550716  0.08166056  0.47348561    -0.12200
C1443       C  0.87889232  0.10514728  0.46738324     0.01900
C1444       C  0.86618777  0.12347389  0.50562040    -0.00400
C1445       C  0.87906993  0.11727201  0.54968425    -0.12100
C1446       C  0.90512524  0.09320185  0.55602020     0.01800
H1447       H  0.91625954  0.06824193  0.44394969     0.14800
H1448       H  0.86922948  0.13181059  0.57893960     0.14800
C1449       C  0.91845582  0.08814997  0.60182872     0.36500
C1450       C  0.86572449  0.11103675  0.42170216     0.36400
N1451       N  0.92915205  0.08449282  0.63858976    -0.43900
N1452       N  0.85510071  0.11610558  0.38523228    -0.43900
C1453       C  0.59317035  0.09253204  0.52070344    -0.00300
C1454       C  0.59159047  0.11454569  0.48281709    -0.12200
C1455       C  0.61649332  0.13994792  0.47697907     0.01900
C1456       C  0.64384682  0.14214706  0.50842427    -0.00400
C1457       C  0.64496869  0.12068803  0.54675205    -0.12100
C1458       C  0.61937717  0.09639547  0.55366099     0.01800
H1459       H  0.57119362  0.11151374  0.45770283     0.14800
H1460       H  0.66567166  0.12325278  0.57153651     0.14800
C1461       C  0.62018999  0.07599963  0.59490616     0.36500
C1462       C  0.61410986  0.16276005  0.43813918     0.36400
N1463       N  0.62063607  0.05991510  0.62816102    -0.43900
N1464       N  0.61227957  0.18133982  0.40734068    -0.43900
C1465       C  0.60932553  0.41416168  0.51630644    -0.00300
C1466       C  0.61078498  0.39517047  0.47497343    -0.12200
C1467       C  0.63775496  0.37264621  0.46669869     0.01900
C1468       C  0.66272247  0.36831219  0.50094445    -0.00400
C1469       C  0.66228686  0.38869926  0.54112498    -0.12100
C1470       C  0.63566288  0.41175532  0.54910772     0.01800
H1471       H  0.59123046  0.39864570  0.44889596     0.14800
H1472       H  0.68229776  0.38596304  0.56661393     0.14800
C1473       C  0.63573826  0.43239749  0.59096792     0.36500
C1474       C  0.64080289  0.35650437  0.42182881     0.36400
N1475       N  0.63604636  0.44896911  0.62449188    -0.43900
N1476       N  0.64352512  0.34449253  0.38536102    -0.43900
C1477       C  0.88623459  0.34807100  0.51646417    -0.00300
C1478       C  0.88678014  0.36477073  0.55960114    -0.12200
C1479       C  0.91194417  0.38921050  0.57061306     0.01900
C1480       C  0.93688672  0.39711332  0.53795580    -0.00400
C1481       C  0.93724216  0.37928520  0.49553038    -0.12100
C1482       C  0.91201448  0.35480472  0.48446983     0.01800
H1483       H  0.86713469  0.35907681  0.58441677     0.14800
H1484       H  0.95623242  0.38587690  0.47022517     0.14800
C1485       C  0.91165271  0.33899907  0.43913493     0.36500
C1486       C  0.91110223  0.40663200  0.61486466     0.36400
N1487       N  0.91137105  0.32669791  0.40259740    -0.43900
N1488       N  0.91034756  0.42048814  0.65040627    -0.43900
C1489       C  0.64060693  0.25716425  0.35524356    -0.00300
C1490       C  0.64060088  0.25024575  0.30775672    -0.12200
C1491       C  0.61001751  0.25056632  0.28164101     0.01900
C1492       C  0.57786396  0.25638817  0.30312824    -0.00400
C1493       C  0.57856949  0.26608585  0.34969275    -0.12100
C1494       C  0.60874980  0.26654617  0.37553459     0.01800
H1495       H  0.66446929  0.24424805  0.29091498     0.14800
H1496       H  0.55556712  0.27449224  0.36661207     0.14800
C1497       C  0.60526571  0.27755840  0.42303963     0.36500
C1498       C  0.61280990  0.24522015  0.23267458     0.36400
N1499       N  0.60193411  0.28642473  0.46090826    -0.43900
N1500       N  0.61551913  0.24093816  0.19346359    -0.43900
C1501       C  0.88095365  0.23778313  0.34871506    -0.00300
C1502       C  0.88296607  0.26090574  0.31181432    -0.12200
C1503       C  0.91377885  0.26571246  0.28775999     0.01900
C1504       C  0.94313805  0.24612501  0.29914393    -0.00400
C1505       C  0.94027821  0.22140629  0.33387049    -0.12100
C1506       C  0.91027477  0.21761119  0.35907201     0.01800
H1507       H  0.86122594  0.27721494  0.30399568     0.14800
H1508       H  0.96221567  0.20563782  0.34268462     0.14800
C1509       C  0.91146707  0.19400195  0.39714444     0.36500
C1510       C  0.91532860  0.29328395  0.25486297     0.36400
N1511       N  0.91352102  0.17563884  0.42812847    -0.43900
N1512       N  0.91638272  0.31572903  0.22889924    -0.43900
C1513       C  0.76251285  0.36996633  0.35333341    -0.00300
C1514       C  0.76645865  0.40411365  0.37202220    -0.12200
C1515       C  0.76246945  0.43419166  0.34520035     0.01900
C1516       C  0.75389459  0.43112889  0.29819136    -0.00400
C1517       C  0.75088845  0.39727703  0.27907380    -0.12100
C1518       C  0.75513324  0.36715253  0.30567045     0.01800
H1519       H  0.77220970  0.40766460  0.40825717     0.14800
H1520       H  0.74458458  0.39427721  0.24289743     0.14800
C1521       C  0.75107271  0.33382130  0.28284097     0.36500
C1522       C  0.76589730  0.46788327  0.36739637     0.36400
N1523       N  0.74788037  0.30707392  0.26450520    -0.43900
N1524       N  0.76890283  0.49481015  0.38533220    -0.43900
C1525       C  0.74842134  0.12420867  0.34917157    -0.00300
C1526       C  0.72640007  0.09771083  0.36421072    -0.12200
C1527       C  0.72379277  0.06555967  0.34103965     0.01900
C1528       C  0.74407322  0.05853383  0.30230002    -0.00400
C1529       C  0.76560815  0.08505485  0.28637632    -0.12100
C1530       C  0.76759460  0.11781949  0.30907304     0.01800
H1531       H  0.71108398  0.10210904  0.39460760     0.14800
H1532       H  0.78009021  0.08052910  0.25529985     0.14800
C1533       C  0.78952892  0.14424847  0.29077925     0.36500
C1534       C  0.69980235  0.04010418  0.35736855     0.36400
N1535       N  0.80685574  0.16560160  0.27586754    -0.43900
N1536       N  0.68051198  0.01962726  0.36998134    -0.43900
O1537       O  0.75775658  0.68622133  0.36353869    -0.86600
O1538       O  0.76314344  0.68594734  0.62709242    -0.86800
O1539       O  0.80942712  0.64285383  0.49465571    -0.88500
O1540       O  0.70156666  0.65428310  0.49920652    -0.87200
O1541       O  0.66409599  0.69982609  0.49621676    -0.86800
O1542       O  0.85385667  0.68166195  0.49647586    -0.88200
O1543       O  0.75843674  0.64715532  0.56689878    -0.86700
O1544       O  0.75383250  0.64723464  0.42246688    -0.86200
Zr1545     Zr  0.75855392  0.67760195  0.49488226     2.84300
O1546       O  0.72844458  0.71376661  0.54483498    -1.08200
O1547       O  0.79403228  0.70846220  0.44568479    -1.08900
C1548       C  0.75443468  0.65486061  0.37965013     1.06500
C1549       C  0.76048148  0.65439702  0.61020638     1.06400
C1550       C  0.84113683  0.65085434  0.49728134     1.09400
C1551       C  0.67145451  0.66737279  0.49835416     1.07200
H1552       H  0.80958310  0.69281183  0.56043197     0.32700
O1553       O  0.79606883  0.70860168  0.54246499    -1.29200
H1554       H  0.71082415  0.70076622  0.43009673     0.32400
O1555       O  0.72701281  0.71430350  0.44788977    -1.30900
O1556       O  0.76574525  0.80449090  0.62882942    -0.86600
O1557       O  0.76175472  0.80625932  0.36523000    -0.88100
O1558       O  0.86279922  0.73741578  0.56559401    -0.86700
O1559       O  0.66811192  0.75295010  0.56915007    -0.86700
O1560       O  0.66795733  0.75480288  0.42765946    -0.86500
O1561       O  0.85911174  0.73693526  0.41972440    -0.86300
O1562       O  0.82860459  0.83693303  0.50435633    -0.86600
O1563       O  0.71920029  0.84872808  0.50103656    -0.86100
O1564       O  0.86595309  0.79139569  0.49846672    -0.87200
O1565       O  0.67524861  0.80946413  0.49882059    -0.86300
O1566       O  0.82543254  0.74330215  0.62573838    -0.86700
O1567       O  0.81967418  0.74373643  0.36171389    -0.86400
O1568       O  0.70245811  0.74860302  0.36556090    -0.86100
O1569       O  0.70711789  0.74659728  0.62762651    -0.86500
O1570       O  0.77118240  0.84456222  0.57116857    -0.86800
O1571       O  0.76914355  0.84575684  0.42435366    -0.88100
Zr1572     Zr  0.76595083  0.74533301  0.59316815     2.83100
Zr1573     Zr  0.76214587  0.74629122  0.39836185     2.83500
Zr1574     Zr  0.83122557  0.73984607  0.49366180     2.84100
Zr1575     Zr  0.69856407  0.75170626  0.49795555     2.83400
Zr1576     Zr  0.77089704  0.81480036  0.49715809     2.84200
O1577       O  0.73312432  0.78369497  0.44959148    -1.08700
O1578       O  0.80171828  0.77690697  0.54363313    -1.08200
C1579       C  0.76755357  0.83607011  0.61349697     1.06500
C1580       C  0.76476565  0.83809668  0.38123425     1.09100
C1581       C  0.85602512  0.73979578  0.60881568     1.06600
C1582       C  0.67598565  0.75000013  0.61182226     1.07000
C1583       C  0.67248540  0.75188780  0.38445671     1.06600
C1584       C  0.85076416  0.73963514  0.37699397     1.06100
C1585       C  0.85878220  0.82373844  0.50426671     1.06500
C1586       C  0.68741606  0.84050095  0.50060043     1.06100
H1587       H  0.81581916  0.79163867  0.42874339     0.32700
O1588       O  0.80044328  0.77791871  0.44688775    -1.29800
H1589       H  0.72153826  0.79869601  0.56413324     0.32800
O1590       O  0.73516818  0.78322519  0.54547306    -1.31200
N1591       N  0.56610032  0.00075510  0.53197311    -0.36700
N1592       N  0.00768501  0.54949899  0.53121436    -0.57300
N1593       N  0.96362743  0.99069301  0.53200663    -0.36700
N1594       N  0.02055564  0.94342181  0.53430219    -0.57300
C1595       C  0.58174322  0.52920013  0.50452611     0.26800
C1596       C  0.58710804  0.97412696  0.52131595     0.26800
C1597       C  0.93965400  0.51649330  0.52935585     0.26800
C1598       C  0.94828087  0.95982562  0.52323061     0.26800
C1599       C  0.53476920  0.57086804  0.51713558     0.35500
C1600       C  0.97859664  0.56728643  0.53787253     0.35500
C1601       C  0.54946337  0.92634721  0.54479142     0.35500
C1602       C  0.99562817  0.92138459  0.54614858     0.35500
C1603       C  0.61345311  0.52092869  0.48681759    -0.22000
C1604       C  0.61572060  0.98647344  0.49907907    -0.22000
C1605       C  0.90920624  0.50141426  0.51463982    -0.22000
C1606       C  0.91662005  0.96526841  0.50305646    -0.22000
C1607       C  0.52182856  0.60390388  0.52489308    -0.23100
C1608       C  0.98562712  0.60245546  0.54446506    -0.23100
C1609       C  0.54266151  0.89297743  0.55966058    -0.23100
C1610       C  0.00928217  0.89074129  0.56264417    -0.23100
C1611       C  0.56916864  0.56311760  0.51002995    -0.18400
C1612       C  0.58169910  0.93924593  0.53311853    -0.18400
C1613       C  0.96114905  0.92706735  0.53590931    -0.18400
C1614       C  0.94590169  0.55262172  0.53232386    -0.18400
H1615       H  0.63221984  0.53854748  0.47313732     0.14500
H1616       H  0.63724256  0.97165963  0.48650280     0.14500
H1617       H  0.88626757  0.51421666  0.50300472     0.14500
H1618       H  0.89809275  0.94586129  0.49227446     0.14500
H1619       H  0.53590152  0.62801270  0.52893967     0.12800
H1620       H  0.96772687  0.62358918  0.54882729     0.12800
H1621       H  0.56092571  0.87293366  0.56806560     0.12800
H1622       H  0.99559960  0.86788454  0.57355948     0.12800
H1623       H  0.54488336  0.99973530  0.55313933     0.26000
H1624       H  0.98564845  0.99461926  0.55157734     0.26000
O1625       O  0.98556824  0.94023731  0.85971681    -0.86600
O1626       O  0.98873194  0.94366168  0.12323650    -0.86800
O1627       O  0.53839330  0.90305886  0.00009948    -0.88500
O1628       O  0.92788037  0.90708603  0.99862866    -0.87200
O1629       O  0.88722578  0.94958776  0.99385556    -0.86800
O1630       O  0.58022800  0.94451694  0.99581893    -0.88200
O1631       O  0.98567107  0.90471395  0.06326704    -0.86700
O1632       O  0.98267633  0.90254955  0.91969248    -0.86200
Zr1633     Zr  0.98334063  0.93427267  0.99147103     2.84300
O1634       O  0.95107598  0.96953065  0.04000720    -1.08200
O1635       O  0.51849222  0.96423347  0.94557658    -1.08900
C1636       C  0.98446589  0.90902049  0.87654732     1.06500
C1637       C  0.98805145  0.91184622  0.10632015     1.06400
C1638       C  0.56967899  0.91313546  0.00038615     1.09400
C1639       C  0.89687575  0.91799168  0.99856869     1.07200
H1640       H  0.53372303  0.95260216  0.06055965     0.32700
O1641       O  0.51908372  0.96698195  0.04205754    -1.29200
H1642       H  0.93524599  0.95238795  0.92468492     0.32400
O1643       O  0.95012302  0.96755905  0.94242838    -1.30900
O1644       O  0.99295403  0.56416111  0.12391321    -0.86600
O1645       O  0.98863230  0.56113470  0.86035763    -0.88100
O1646       O  0.58340993  0.00171513  0.06415247    -0.86700
O1647       O  0.88956287  0.00637502  0.06466071    -0.86700
O1648       O  0.89032321  0.50476430  0.92121541    -0.86500
O1649       O  0.58466198  0.50017224  0.92227515    -0.86300
O1650       O  0.54256198  0.59872050  0.99729649    -0.86600
O1651       O  0.93137758  0.60036202  0.99634249    -0.86100
O1652       O  0.58288947  0.55568298  0.99689468    -0.87200
O1653       O  0.89028065  0.55805030  0.99478813    -0.86300
O1654       O  0.54679154  0.00322722  0.12509461    -0.86700
O1655       O  0.54596621  0.49783286  0.86267035    -0.86400
O1656       O  0.92879589  0.50263160  0.86176882    -0.86100
O1657       O  0.92881313  0.00527346  0.12380049    -0.86500
O1658       O  0.99131127  0.60267948  0.06431521    -0.86800
O1659       O  0.98677125  0.60077112  0.92035732    -0.88100
Zr1660     Zr  0.98689970  0.00374868  0.08866551     2.83100
Zr1661     Zr  0.98719345  0.50190511  0.89522836     2.83500
Zr1662     Zr  0.55206495  0.99996106  0.99286632     2.84100
Zr1663     Zr  0.91799781  0.00342375  0.99087107     2.83400
Zr1664     Zr  0.98608512  0.57133622  0.99281693     2.84200
O1665       O  0.95273313  0.53660555  0.94442475    -1.08700
O1666       O  0.52191083  0.53559316  0.04152504    -1.08200
C1667       C  0.99390418  0.59554264  0.10717227     1.06500
C1668       C  0.98880992  0.59276733  0.87737505     1.09100
C1669       C  0.57735989  0.00308921  0.10744175     1.06600
C1670       C  0.89767291  0.00668271  0.10775415     1.07000
C1671       C  0.89811939  0.50402910  0.87836683     1.06600
C1672       C  0.57694540  0.49910520  0.87929435     1.06100
C1673       C  0.57333310  0.58764623  0.99925643     1.06500
C1674       C  0.90020935  0.58989023  0.99684508     1.06100
H1675       H  0.53657957  0.54925379  0.92755365     0.32700
O1676       O  0.52160023  0.53494526  0.94543966    -1.29800
H1677       H  0.93975621  0.55289742  0.06135726     0.32800
O1678       O  0.95381489  0.53785075  0.04259673    -1.31200
N1679       N  0.78563115  0.75386907  0.03168794    -0.36700
N1680       N  0.73487724  0.70015240  0.03835655    -0.57300
N1681       N  0.68204333  0.75206120  0.05495240    -0.36700
N1682       N  0.73336230  0.80579613  0.04398305    -0.57300
C1683       C  0.80378791  0.72627393  0.01658626     0.26800
C1684       C  0.80323371  0.78260869  0.02053820     0.26800
C1685       C  0.66301918  0.72355955  0.04516031     0.26800
C1686       C  0.66209880  0.77992160  0.04662365     0.26800
C1687       C  0.76280902  0.67985853  0.03699254     0.35500
C1688       C  0.70874435  0.67905740  0.04862889     0.35500
C1689       C  0.76080123  0.82689709  0.04539416     0.35500
C1690       C  0.70638462  0.82589612  0.05451673     0.35500
C1691       C  0.83368629  0.73755254  0.99650474    -0.22000
C1692       C  0.83338680  0.77319366  0.99910985    -0.22000
C1693       C  0.63019547  0.73333248  0.03304327    -0.22000
C1694       C  0.62967036  0.76889174  0.03364096    -0.22000
C1695       C  0.75447921  0.64575233  0.04693798    -0.23100
C1696       C  0.72002681  0.64521447  0.05407326    -0.23100
C1697       C  0.75130809  0.86053329  0.05737053    -0.23100
C1698       C  0.71666796  0.85990927  0.06302396    -0.23100
C1699       C  0.79505076  0.69115023  0.02276282    -0.18400
C1700       C  0.79350182  0.81705763  0.03082738    -0.18400
C1701       C  0.67233517  0.81507176  0.04966131    -0.18400
C1702       C  0.67443194  0.68887964  0.04592042    -0.18400
H1703       H  0.85377147  0.72175371  0.98181371     0.14500
H1704       H  0.85321376  0.79019007  0.98678089     0.14500
H1705       H  0.60900099  0.71663271  0.02340390     0.14500
H1706       H  0.60795415  0.78469354  0.02441187     0.14500
H1707       H  0.77124014  0.62342200  0.04743167     0.12800
H1708       H  0.70480226  0.62239202  0.06090532     0.12800
H1709       H  0.76744972  0.88334594  0.06001152     0.12800
H1710       H  0.70068015  0.88211267  0.07086092     0.12800
H1711       H  0.76451085  0.75309967  0.05283048     0.26000
H1712       H  0.70659789  0.75236987  0.06861499     0.26000
C1713       C  0.54274331  0.75409624  0.27774987     0.86300
C1714       C  0.54007421  0.72294677  0.24474287    -0.53900
C1715       C  0.00996619  0.72368569  0.21519365     0.09300
C1716       C  0.98573693  0.75498223  0.22480299     0.20200
C1717       C  0.53896627  0.78639066  0.24800898    -0.54600
C1718       C  0.00797351  0.78852151  0.22122127     0.09400
C1719       C  0.00728592  0.75208206  0.30317598    -0.54100
C1720       C  0.97817912  0.75234745  0.27658099     0.09900
H1721       H  0.55861786  0.70197027  0.24415342     0.14500
H1722       H  0.96248927  0.75483737  0.20281457     0.00200
H1723       H  0.55742937  0.80747450  0.24890391     0.14800
H1724       H  0.00555851  0.74864250  0.33987124     0.14600
C1725       C  0.70708615  0.99443199  0.21314380     0.86300
C1726       C  0.71493378  0.96125175  0.23996872    -0.53900
C1727       C  0.74422276  0.96221217  0.26601966     0.09300
C1728       C  0.76392064  0.99761106  0.26155535     0.20200
C1729       C  0.71032470  0.52421865  0.24747832    -0.54600
C1730       C  0.73978048  0.52665620  0.27233755     0.09400
C1731       C  0.73991225  0.99915597  0.18436176    -0.54100
C1732       C  0.76972504  0.00167097  0.20932630     0.09900
H1733       H  0.69884770  0.93832465  0.23785470     0.14500
H1734       H  0.78777441  0.99949624  0.28214026     0.00200
H1735       H  0.69049725  0.54388794  0.24961320     0.14800
H1736       H  0.73999517  0.99878802  0.14716054     0.14600
C1737       C  0.54726397  0.74565451  0.71775690     0.86300
C1738       C  0.54006455  0.77903028  0.74587603    -0.53900
C1739       C  0.01048779  0.78291736  0.76839128     0.09300
C1740       C  0.98987980  0.74873259  0.76182620     0.20200
C1741       C  0.54369842  0.71601518  0.75232720    -0.54600
C1742       C  0.01424076  0.71897577  0.77545454     0.09400
C1743       C  0.01661667  0.74433388  0.68678927    -0.54100
C1744       C  0.98585496  0.74432729  0.70942413     0.09900
H1745       H  0.55754131  0.80096973  0.74705348     0.14500
H1746       H  0.96529576  0.74845788  0.78044277     0.00200
H1747       H  0.56151136  0.69485227  0.75623443     0.14800
H1748       H  0.01832321  0.74161110  0.64973297     0.14600
C1749       C  0.70319533  0.99483130  0.77509638     0.86300
C1750       C  0.70979407  0.52892346  0.74421527    -0.53900
C1751       C  0.73948751  0.52990747  0.72029847     0.09300
C1752       C  0.75979354  0.99683435  0.72777500     0.20200
C1753       C  0.70888276  0.96329583  0.74303147    -0.54600
C1754       C  0.73815631  0.96353622  0.71755315     0.09400
C1755       C  0.73608063  0.99498878  0.80496449    -0.54100
C1756       C  0.76571123  0.99620586  0.78018517     0.09900
H1757       H  0.69081938  0.54939431  0.74200405     0.14500
H1758       H  0.78351049  0.99944697  0.70808815     0.00200
H1759       H  0.69353608  0.94009291  0.74547353     0.14800
H1760       H  0.73601923  0.99410891  0.84219873     0.14600
C1761       C  0.60906212  0.00380064  0.13722685    -0.00300
C1762       C  0.61002412  0.98734666  0.17998509    -0.12200
C1763       C  0.64099918  0.98340319  0.20477642     0.01900
C1764       C  0.67257623  0.99525537  0.18648245    -0.00400
C1765       C  0.67202775  0.51099174  0.14565085    -0.12100
C1766       C  0.64151094  0.51491740  0.12112995     0.01800
H1767       H  0.58666548  0.97672707  0.19366544     0.14800
H1768       H  0.69463015  0.52302115  0.13198661     0.14800
C1769       C  0.64362754  0.53447171  0.07930107     0.36500
C1770       C  0.63918435  0.96710940  0.24897623     0.36400
N1771       N  0.64662464  0.55015030  0.04600320    -0.43900
N1772       N  0.63766265  0.95369386  0.28420850    -0.43900
C1773       C  0.80413341  0.00710332  0.18732619    -0.00300
C1774       C  0.83280404  0.98853814  0.20311747    -0.12200
C1775       C  0.86431460  0.98952697  0.17983717     0.01900
C1776       C  0.86777792  0.00936561  0.13967028    -0.00400
C1777       C  0.84267434  0.52810359  0.13133512    -0.12100
C1778       C  0.81115607  0.52692574  0.15385130     0.01800
H1779       H  0.83021503  0.97179675  0.23248368     0.14800
H1780       H  0.84605622  0.54648341  0.10382186     0.14800
C1781       C  0.78519914  0.55144665  0.14034349     0.36500
C1782       C  0.89191081  0.96821035  0.19620416     0.36400
N1783       N  0.76448053  0.57107815  0.12926019    -0.43900
N1784       N  0.91405836  0.95112088  0.20940676    -0.43900
C1785       C  0.99064350  0.88010948  0.13680271    -0.00300
C1786       C  0.99674618  0.88386128  0.18433648    -0.12200
C1787       C  0.00120752  0.85456958  0.21257493     0.01900
C1788       C  0.99934673  0.82026534  0.19382177    -0.00400
C1789       C  0.48922638  0.81564142  0.15018686    -0.12100
C1790       C  0.48317894  0.84472705  0.12274456     0.01800
H1791       H  0.99861234  0.90972288  0.19952973     0.14800
H1792       H  0.48609750  0.78969172  0.13554567     0.14800
C1793       C  0.47121509  0.83727592  0.07651954     0.36500
C1794       C  0.00711624  0.86031440  0.26110166     0.36400
N1795       N  0.46166142  0.83096368  0.03960406    -0.43900
N1796       N  0.01195521  0.86443709  0.30006508    -0.43900
C1797       C  0.00258271  0.69245709  0.18551700    -0.00300
C1798       C  0.98461358  0.66415246  0.20390898    -0.12200
C1799       C  0.98283959  0.63164582  0.18056977     0.01900
C1800       C  0.99857765  0.62718887  0.13747970    -0.00400
C1801       C  0.51394251  0.65660445  0.11900991    -0.12100
C1802       C  0.51621829  0.68834155  0.14337592     0.01800
H1803       H  0.97289927  0.66712352  0.23733598     0.14800
H1804       H  0.52321231  0.65568597  0.08403327     0.14800
C1805       C  0.53198948  0.71784153  0.12182054     0.36500
C1806       C  0.96454210  0.60336846  0.20106881     0.36400
N1807       N  0.54478429  0.74151310  0.10490011    -0.43900
N1808       N  0.95020002  0.58023877  0.21702050    -0.43900
C1809       C  0.59541015  0.88732912  0.01102544    -0.00300
C1810       C  0.59317748  0.87085214  0.05345679    -0.12200
C1811       C  0.61877218  0.84838043  0.06781443     0.01900
C1812       C  0.64666366  0.84180379  0.03889392    -0.00400
C1813       C  0.64885240  0.85839026  0.99638696    -0.12100
C1814       C  0.62352781  0.88138076  0.98240366     0.01800
H1815       H  0.57174339  0.87618659  0.07581982     0.14800
H1816       H  0.67010239  0.85281871  0.97384924     0.14800
C1817       C  0.62622509  0.89758641  0.93813769     0.36500
C1818       C  0.61575755  0.83217973  0.11194635     0.36400
N1819       N  0.62827796  0.91047576  0.90261300    -0.43900
N1820       N  0.61309503  0.81927562  0.14734790    -0.43900
C1821       C  0.87031808  0.89260336  0.00694791    -0.00300
C1822       C  0.84638286  0.88508027  0.97231958    -0.12200
C1823       C  0.82058617  0.86090936  0.97987658     0.01900
C1824       C  0.81866196  0.84456580  0.02274021    -0.00400
C1825       C  0.84207555  0.85280252  0.05769638    -0.12100
C1826       C  0.86782597  0.87693262  0.05015225     0.01800
H1827       H  0.84819173  0.89768763  0.93935082     0.14800
H1828       H  0.84022717  0.84025397  0.09068930     0.14800
C1829       C  0.89049994  0.88640132  0.08763076     0.36500
C1830       C  0.79694194  0.85248563  0.94309180     0.36400
N1831       N  0.90841946  0.89441643  0.11771937    -0.43900
N1832       N  0.77801388  0.84556488  0.91365681    -0.43900
C1833       C  0.82168240  0.66488269  0.01473214    -0.00300
C1834       C  0.84795255  0.66263832  0.04716375    -0.12200
C1835       C  0.87394144  0.63849526  0.04144552     0.01900
C1836       C  0.87383463  0.61628722  0.00249716    -0.00400
C1837       C  0.84729100  0.61822279  0.97007485    -0.12100
C1838       C  0.82126447  0.64266463  0.97578008     0.01800
H1839       H  0.84784979  0.67962022  0.07728702     0.14800
H1840       H  0.84706401  0.60085510  0.94034503     0.14800
C1841       C  0.79459983  0.64488011  0.94147666     0.36500
C1842       C  0.89915043  0.63569362  0.07750382     0.36400
N1843       N  0.77306307  0.64694801  0.91427598    -0.43900
N1844       N  0.91884236  0.63361485  0.10707137    -0.43900
C1845       C  0.59933140  0.61341486  0.00958424    -0.00300
C1846       C  0.60214252  0.62493835  0.05530678    -0.12200
C1847       C  0.62695214  0.64910340  0.06820157     0.01900
C1848       C  0.64942839  0.66148120  0.03492201    -0.00400
C1849       C  0.64652034  0.65005871  0.98903818    -0.12100
C1850       C  0.62125973  0.62629789  0.97597043     0.01800
H1851       H  0.58484696  0.61501017  0.08090430     0.14800
H1852       H  0.66337422  0.66057914  0.96335305     0.14800
C1853       C  0.61708696  0.61720854  0.92795563     0.36500
C1854       C  0.62857907  0.66118279  0.11533289     0.36400
N1855       N  0.61364173  0.61071953  0.88925392    -0.43900
N1856       N  0.62963891  0.67081911  0.15315652    -0.43900
C1857       C  0.86837383  0.50430624  0.84699529    -0.00300
C1858       C  0.84724997  0.53371299  0.84762640    -0.12200
C1859       C  0.81489516  0.53294005  0.82682558     0.01900
C1860       C  0.80036195  0.99764291  0.80173342    -0.00400
C1861       C  0.82121898  0.96787797  0.80155533    -0.12100
C1862       C  0.85401321  0.96867447  0.82180659     0.01800
H1863       H  0.85559580  0.55701492  0.86603146     0.14800
H1864       H  0.81154883  0.94377641  0.78662291     0.14800
C1865       C  0.87386772  0.93708662  0.82291801     0.36500
C1866       C  0.79418413  0.56379751  0.83012254     0.36400
N1867       N  0.88992469  0.91186878  0.82390165    -0.43900
N1868       N  0.77826529  0.58897969  0.83362262    -0.43900
C1869       C  0.66878633  0.99511719  0.80120375    -0.00300
C1870       C  0.64117777  0.97312622  0.78764902    -0.12200
C1871       C  0.60975799  0.97341915  0.81081676     0.01900
C1872       C  0.60712780  0.50047008  0.84842065    -0.00400
C1873       C  0.63317819  0.52432224  0.85967773    -0.12100
C1874       C  0.66460688  0.52417760  0.83695102     0.01800
H1875       H  0.64314222  0.95582870  0.75827239     0.14800
H1876       H  0.62918082  0.54291748  0.88745751     0.14800
C1877       C  0.68902371  0.55049356  0.85059648     0.36500
C1878       C  0.58428629  0.94810386  0.79735865     0.36400
N1879       N  0.70814517  0.57182051  0.86233724    -0.43900
N1880       N  0.56450692  0.92726583  0.78610042    -0.43900
C1881       C  0.00521286  0.68823615  0.80367993    -0.00300
C1882       C  0.97904468  0.66543829  0.78893799    -0.12200
C1883       C  0.97369658  0.63325823  0.81065402     0.01900
C1884       C  0.99482662  0.62351806  0.84781392    -0.00400
C1885       C  0.52299789  0.64265481  0.86107533    -0.12100
C1886       C  0.52750137  0.67459989  0.83986386     0.01800
H1887       H  0.96329060  0.67241226  0.75973698     0.14800
H1888       H  0.53998262  0.63566508  0.88906018     0.14800
C1889       C  0.55490413  0.69678263  0.85626080     0.36500
C1890       C  0.94570579  0.61156415  0.79534600     0.36400
N1891       N  0.57691613  0.71423029  0.86994947    -0.43900
N1892       N  0.92302135  0.59453310  0.78283736    -0.43900
C1893       C  0.99885534  0.81436922  0.79475804    -0.00300
C1894       C  0.99649826  0.84670438  0.77274336    -0.12200
C1895       C  0.98968099  0.87772516  0.79757555     0.01900
C1896       C  0.98662672  0.87706486  0.84596077    -0.00400
C1897       C  0.48705407  0.84069625  0.86910653    -0.12100
C1898       C  0.49207765  0.80973016  0.84354888     0.01800
H1899       H  0.00019200  0.84771482  0.73592092     0.14800
H1900       H  0.48326488  0.83850422  0.90577135     0.14800
C1901       C  0.49152813  0.77706304  0.86733634     0.36500
C1902       C  0.98545485  0.90945759  0.77236175     0.36400
N1903       N  0.49072764  0.75099525  0.88664483    -0.43900
N1904       N  0.98168202  0.93485981  0.75212886    -0.43900
C1905       C  0.95155452  0.74097480  0.68607477    -0.00300
C1906       C  0.92540699  0.76462005  0.69744279    -0.12200
C1907       C  0.89339667  0.76357332  0.67485211     0.01900
C1908       C  0.88679131  0.73844252  0.63993400    -0.00400
C1909       C  0.91251830  0.71384844  0.63009845    -0.12100
C1910       C  0.94424399  0.71455784  0.65315291     0.01800
H1911       H  0.93036946  0.78479294  0.72309164     0.14800
H1912       H  0.90787660  0.69400035  0.60388629     0.14800
C1913       C  0.96827826  0.68694316  0.64393563     0.36500
C1914       C  0.86862299  0.78998602  0.68606542     0.36400
N1915       N  0.98744643  0.66463081  0.63713316    -0.43900
N1916       N  0.84879847  0.81123639  0.69502985    -0.43900
C1917       C  0.58192978  0.74741787  0.69174205    -0.00300
C1918       C  0.61002371  0.72562784  0.70277411    -0.12200
C1919       C  0.64104290  0.72671287  0.67863291     0.01900
C1920       C  0.64574877  0.75071027  0.64327397    -0.00400
C1921       C  0.61843303  0.77316538  0.63296726    -0.12100
C1922       C  0.58729749  0.77199038  0.65664984     0.01800
H1923       H  0.60871274  0.70723712  0.73015307     0.14800
H1924       H  0.62120759  0.79161366  0.60543745     0.14800
C1925       C  0.56118498  0.79651606  0.64384858     0.36500
C1926       C  0.66648971  0.70079757  0.68827805     0.36400
N1927       N  0.54022365  0.81616140  0.63369444    -0.43900
N1928       N  0.68648379  0.67949348  0.69555611    -0.43900
C1929       C  0.75910738  0.62304095  0.64103417    -0.00300
C1930       C  0.75893990  0.58947069  0.62009168    -0.12200
C1931       C  0.75430819  0.55903502  0.64537239     0.01900
C1932       C  0.74905389  0.56118987  0.69298252    -0.00400
C1933       C  0.75079168  0.59423022  0.71464304    -0.12100
C1934       C  0.75654408  0.62481149  0.68952959     0.01800
H1935       H  0.76181579  0.58664752  0.58323976     0.14800
H1936       H  0.74723537  0.59619197  0.75142780     0.14800
C1937       C  0.75948568  0.65737283  0.71459003     0.36500
C1938       C  0.75332688  0.52602183  0.62106859     0.36800
N1939       N  0.76184907  0.68349838  0.73468659    -0.43900
N1940       N  0.75262278  0.49971325  0.60121201    -0.43900
C1941       C  0.76138616  0.86584189  0.64514399    -0.00300
C1942       C  0.78808596  0.88863056  0.65696616    -0.12200
C1943       C  0.78187981  0.92096972  0.67895439     0.01900
C1944       C  0.74791137  0.93145491  0.68920970    -0.00400
C1945       C  0.72137743  0.90886324  0.67430094    -0.12100
C1946       C  0.72776659  0.87638615  0.65388569     0.01800
H1947       H  0.81392680  0.88148505  0.64781512     0.14800
H1948       H  0.69499273  0.91654564  0.67782975     0.14800
C1949       C  0.69902198  0.85508886  0.63985950     0.36500
C1950       C  0.81121202  0.94257025  0.68816503     0.36400
N1951       N  0.67580685  0.83841213  0.62842939    -0.43900
N1952       N  0.83540381  0.95935417  0.69415975    -0.43900
C1953       C  0.91714073  0.57636921  0.52445605    -0.00300
C1954       C  0.90350277  0.57854930  0.47983168    -0.12200
C1955       C  0.87638551  0.60079863  0.47080277     0.01900
C1956       C  0.86492126  0.62307101  0.50594304    -0.00400
C1957       C  0.87803666  0.62066413  0.55057262    -0.12100
C1958       C  0.90350650  0.59678604  0.56041303     0.01800
H1959       H  0.91369553  0.56234233  0.45239682     0.14800
H1960       H  0.86844411  0.63765769  0.57763823     0.14800
C1961       C  0.91576317  0.59442606  0.60716367     0.36500
C1962       C  0.86049169  0.60012531  0.42588696     0.36400
N1963       N  0.92540443  0.59293587  0.64474069    -0.43900
N1964       N  0.84739109  0.59922002  0.39013869    -0.43900
C1965       C  0.59362251  0.59186792  0.50805659    -0.00300
C1966       C  0.59750279  0.60955668  0.46674680    -0.12200
C1967       C  0.62217075  0.63548558  0.46322016     0.01900
C1968       C  0.64336543  0.64306815  0.50128391    -0.00400
C1969       C  0.63894574  0.62589164  0.54278424    -0.12100
C1970       C  0.61394980  0.60048108  0.54655557     0.01800
H1971       H  0.58165543  0.60265990  0.43728662     0.14800
H1972       H  0.65523373  0.63219433  0.57205849     0.14800
C1973       C  0.60965265  0.58333449  0.58990820     0.36500
C1974       C  0.62598193  0.65316893  0.42017250     0.36400
N1975       N  0.60600640  0.56958841  0.62459346    -0.43900
N1976       N  0.62891135  0.66735782  0.38567633    -0.43900
C1977       C  0.60962855  0.91435885  0.52534105    -0.00300
C1978       C  0.60643502  0.89100339  0.48815078    -0.12200
C1979       C  0.63273182  0.86816388  0.47748640     0.01900
C1980       C  0.66252166  0.86836910  0.50470547    -0.00400
C1981       C  0.66657232  0.89299163  0.54024510    -0.12100
C1982       C  0.64020930  0.91585260  0.55106918     0.01800
H1983       H  0.58351923  0.89107333  0.46704574     0.14800
H1984       H  0.68986432  0.89356599  0.56050513     0.14800
C1985       C  0.64509335  0.94036856  0.58862398     0.36500
C1986       C  0.62945650  0.84619548  0.43703042     0.36400
N1987       N  0.64944068  0.96004557  0.61858988    -0.43900
N1988       N  0.62710756  0.82921048  0.40402528    -0.43900
C1989       C  0.88707623  0.84755031  0.51406084    -0.00300
C1990       C  0.88354211  0.87097914  0.55110329    -0.12200
C1991       C  0.90881732  0.89541665  0.56110243     0.01900
C1992       C  0.93782025  0.89697164  0.53312695    -0.00400
C1993       C  0.94231646  0.87233183  0.49764229    -0.12100
C1994       C  0.91722764  0.84741607  0.48803981     0.01800
H1995       H  0.86078125  0.87038401  0.57200593     0.14800
H1996       H  0.96466810  0.87371537  0.47606387     0.14800
C1997       C  0.92197486  0.82381170  0.44950770     0.36500
C1998       C  0.90400857  0.91948643  0.59906584     0.36400
N1999       N  0.92586032  0.80503365  0.41853280    -0.43900
N2000       N  0.90025239  0.93887187  0.62939202    -0.43900
C2001       C  0.63967280  0.75201415  0.35689781    -0.00300
C2002       C  0.63989342  0.75248434  0.30874904    -0.12200
C2003       C  0.60923048  0.75300716  0.28295711     0.01900
C2004       C  0.57685387  0.75375375  0.30506049    -0.00400
C2005       C  0.57696768  0.75326011  0.35313332    -0.12100
C2006       C  0.60708972  0.75168671  0.37881225     0.01800
H2007       H  0.66407994  0.75218279  0.29101680     0.14800
H2008       H  0.55357151  0.75379233  0.37207775     0.14800
C2009       C  0.60249421  0.74940453  0.42803288     0.36500
C2010       C  0.61204310  0.75147725  0.23359471     0.36400
N2011       N  0.59840659  0.74767937  0.46726099    -0.43900
N2012       N  0.61462271  0.74953105  0.19408988    -0.43900
C2013       C  0.88033163  0.73890530  0.34452207    -0.00300
C2014       C  0.88434398  0.76533917  0.31205947    -0.12200
C2015       C  0.91545707  0.76972403  0.28849974     0.01900
C2016       C  0.94327408  0.74714064  0.29668840    -0.00400
C2017       C  0.93851408  0.71972390  0.32722742    -0.12100
C2018       C  0.90788636  0.71559679  0.35112490     0.01800
H2019       H  0.86397068  0.78398853  0.30724786     0.14800
H2020       H  0.95933416  0.70182665  0.33347363     0.14800
C2021       C  0.90618607  0.68775532  0.38369153     0.36500
C2022       C  0.91900109  0.79918479  0.25887633     0.36400
N2023       N  0.90560682  0.66559053  0.41006105    -0.43900
N2024       N  0.92172968  0.82293908  0.23526722    -0.43900
C2025       C  0.76271944  0.86908056  0.34903050    -0.00300
C2026       C  0.76910345  0.90301573  0.36702230    -0.12200
C2027       C  0.76525478  0.93327720  0.34045021     0.01900
C2028       C  0.75453830  0.93077198  0.29409914    -0.00400
C2029       C  0.74964019  0.89694302  0.27535947    -0.12100
C2030       C  0.75343755  0.86660505  0.30185157     0.01800
H2031       H  0.77658247  0.90630169  0.40273492     0.14800
H2032       H  0.74197532  0.89410274  0.23963539     0.14800
C2033       C  0.74648929  0.83356430  0.27947071     0.36500
C2034       C  0.77091080  0.96661379  0.36267459     0.36400
N2035       N  0.74080221  0.80727240  0.26103806    -0.43900
N2036       N  0.77571517  0.99317349  0.38086725    -0.43900
C2037       C  0.75028739  0.62389320  0.34845765    -0.00300
C2038       C  0.72570676  0.59892863  0.36043054    -0.12200
C2039       C  0.72358065  0.56656440  0.33781396     0.01900
C2040       C  0.74611233  0.55823017  0.30186935    -0.00400
C2041       C  0.77089162  0.58295481  0.28967411    -0.12100
C2042       C  0.77325336  0.61551260  0.31287731     0.01800
H2043       H  0.70836035  0.60451207  0.38842293     0.14800
H2044       H  0.78802857  0.57705253  0.26160046     0.14800
C2045       C  0.80037781  0.63915398  0.30145017     0.36500
C2046       C  0.69840496  0.54173066  0.35257701     0.36400
N2047       N  0.82217687  0.65825529  0.29295666    -0.43900
N2048       N  0.67854564  0.52139755  0.36398115    -0.43900
loop_ 
_geom_bond_atom_site_label_1 
_geom_bond_atom_site_label_2 
_geom_bond_distance 
_geom_bond_site_symmetry_2 
_ccdc_geom_bond_type 
O1          Zr37   2.505       .  S
O1           C12   1.306       .  A
O2          Zr36   2.520       .  S
O2           C13   1.308       .  A
O3           Zr9   2.420       .  S
O3           C14   1.286       .  A
O4           Zr9   2.406       .  S
O4           C15   1.284       .  A
O5          Zr39   2.406       .  S
O5           C15   1.283       .  A
O6          Zr38   2.424       .  S
O6           C14   1.287       .  A
O7           Zr9   2.406       .  S
O7           C13   1.287       .  A
O8           Zr9   2.401       .  S
O8           C12   1.286       .  A
Zr9          O10   2.335       .  S
Zr9          O11   2.336       .  S
Zr9          O19   2.331       .  S
Zr9          O17   2.323       .  S
O10         Zr36   2.351       .  S
O10         Zr39   2.325       .  S
O11         Zr37   2.374       .  S
O11         Zr38   2.333       .  S
C12         C501   1.492       .  S
C13         C393   1.517       .  S
C14         C420   1.457       .  S
C15         C432   1.444       .  S
H16          O17   0.964       .  S
O17         Zr36   2.359       .  S
O17         Zr38   2.324       .  S
H18          O19   0.963       .  S
O19         Zr37   2.361       .  S
O19         Zr39   2.331       .  S
O20         Zr36   2.511       .  S
O20          C43   1.307       .  A
O21         Zr37   2.501       .  S
O21          C44   1.305       .  A
O22         Zr38   2.419       .  S
O22          C45   1.290       .  A
O23         Zr39   2.413       .  S
O23          C46   1.287       .  A
O24         Zr39   2.373       .  S
O24          C47   1.276       .  A
O25         Zr38   2.409       .  S
O25          C48   1.287       .  A
O26         Zr40   2.419       .  S
O26          C49   1.288       .  A
O27         Zr40   2.419       .  S
O27          C50   1.287       .  A
O28         Zr38   2.394       .  S
O28          C49   1.282       .  A
O29         Zr39   2.410       .  S
O29          C50   1.286       .  A
O30         Zr36   2.484       .  S
O30          C45   1.302       .  A
O31         Zr37   2.521       .  S
O31          C48   1.308       .  A
O32         Zr37   2.531       .  S
O32          C47   1.309       .  A
O33         Zr36   2.503       .  S
O33          C46   1.305       .  A
O34         Zr40   2.427       .  S
O34          C43   1.289       .  A
O35         Zr40   2.434       .  S
O35          C44   1.293       .  A
Zr36         O42   2.367       .  S
Zr36         O54   2.357       .  S
Zr37         O41   2.363       .  S
Zr37         O52   2.368       .  S
Zr38         O42   2.336       .  S
Zr38         O52   2.340       .  S
Zr39         O41   2.327       .  S
Zr39         O54   2.316       .  S
Zr40         O41   2.334       .  S
Zr40         O42   2.338       .  S
Zr40         O54   2.340       .  S
Zr40         O52   2.334       .  S
C43         C405   1.494       .  S
C44         C489   1.520       .  S
C45         C372   1.493       .  S
C46         C384   1.503       .  S
C47         C465   1.516       .  S
C48         C477   1.510       .  S
C49         C453   1.450       .  S
C50         C444   1.461       .  S
H51          O52   0.966       .  S
H53          O54   0.965       .  S
N55          C60   1.348       .  A
N55         C571   1.346       .  A
N55          H87   1.041       .  S
N56          C64   1.346       .  A
N56        C1087   1.345       .  A
N57          C62   1.348       .  A
N57         C573   1.350       .  A
N57          H88   1.040       .  S
N58          C66   1.343       .  A
N58        C1089   1.343       .  A
C59         N567   1.346       .  A
C59          C67   1.387       .  A
C59          C75   1.403       .  A
C60          C76   1.404       .  A
C60          C68   1.388       .  A
C61         N569   1.352   1_545  A
C61          C69   1.386       .  A
C61          C78   1.409       .  A
C62          C77   1.408       .  A
C62          C70   1.387       .  A
C63        N1080   1.345       .  A
C63          C75   1.400       .  A
C63          C71   1.386       .  A
C64          C78   1.405       .  A
C64          C72   1.387       .  A
C65        N1082   1.346       .  A
C65          C73   1.386       .  A
C65          C76   1.405       .  A
C66          C74   1.386       .  A
C66          C77   1.400       .  A
C67         C580   1.371   1_545  A
C67          H79   1.083       .  S
C68         C579   1.369       .  A
C68          H80   1.082       .  S
C69         C582   1.372   1_545  A
C69          H81   1.081       .  S
C70         C581   1.369       .  A
C70          H82   1.082       .  S
C71        C1096   1.370   1_455  A
C71          H83   1.083       .  S
C72        C1095   1.371       .  A
C72          H84   1.082       .  S
C73        C1098   1.373       .  A
C73          H85   1.082       .  S
C74        C1097   1.373       .  A
C74          H86   1.083       .  S
C75         C429   1.463       .  S
C76         C441   1.472       .  S
C77         C456   1.467       .  S
C78         C417   1.479       .  S
O89        Zr637   2.516       .  S
O89         C100   1.307       .  A
O90        Zr124   2.530       .  S
O90         C101   1.311       .  A
O91       Zr1121   2.392   1_455  S
O91         C102   1.283       .  A
O92         Zr97   2.429       .  S
O92         C103   1.289       .  A
O93        Zr127   2.393       .  S
O93         C103   1.282       .  A
O94        Zr126   2.388       .  S
O94         C102   1.281       .  A
O95         Zr97   2.395   1_554  S
O95         C101   1.282       .  A
O96         Zr97   2.424       .  S
O96         C100   1.290       .  A
Zr97       O1115   2.404       .  S
Zr97         O98   2.331   1_556  S
Zr97        O107   2.317       .  S
Zr97       O1123   2.334       .  S
Zr97       O1129   2.340   1_556  S
O98        Zr124   2.368       .  S
O98        Zr127   2.339   1_554  S
O99        Zr126   2.326       .  S
O99       Zr1121   2.335   1_455  S
O99       Zr1661   2.349   1_455  S
C100        C360   1.524       .  S
C101        C249   1.518       .  S
C102        C273   1.438       .  S
C103        C285   1.454       .  S
H104        O105   0.965       .  S
O105       Zr126   2.330   1_554  S
O105      Zr1121   2.336   1_454  S
O105      Zr1148   2.352   1_455  S
H106        O107   0.965       .  S
O107       Zr127   2.345       .  S
O107       Zr637   2.360       .  S
O108       Zr636   2.519       .  S
O108        C131   1.308       .  A
O109       Zr125   2.518   1_545  S
O109        C132   1.308       .  A
O110       Zr126   2.391   1_554  S
O110        C133   1.282       .  A
O111       Zr127   2.437   1_554  S
O111        C134   1.293       .  A
O112       Zr639   2.431       .  S
O112        C135   1.291   1_545  A
O113       Zr638   2.407   1_565  S
O113        C136   1.287       .  A
O114      Zr1152   2.417   1_455  S
O114        C137   1.286       .  A
O115       Zr128   2.417       .  S
O115        C138   1.286       .  A
O116       Zr638   2.406       .  S
O116        C137   1.283       .  A
O117       Zr639   2.412       .  S
O117        C138   1.286       .  A
O118      Zr1148   2.525   1_455  S
O118        C133   1.309       .  A
O119      Zr1149   2.526   1_465  S
O119        C136   1.308       .  A
O120       Zr125   2.482       .  S
O120        C135   1.301       .  A
O121       Zr124   2.500       .  S
O121        C134   1.305       .  A
O122       Zr128   2.419   1_554  S
O122        C131   1.289       .  A
O123       Zr128   2.411       .  S
O123        C132   1.288       .  A
Zr124       O620   2.522       .  S
Zr124      O1142   2.524       .  S
Zr124      O1129   2.349       .  S
Zr124      O1666   2.355       .  S
Zr124       O654   2.377       .  S
Zr125       O601   2.520       .  S
Zr125      O1143   2.511       .  S
Zr125       O129   2.374   1_565  S
Zr125      O1635   2.353       .  S
Zr125       O619   2.366       .  S
Zr125      O1164   2.360   1_565  S
Zr126       O625   2.394       .  S
Zr126       O628   2.399       .  S
Zr126       O642   2.321   1_556  S
Zr126       O652   2.321       .  S
Zr127       O624   2.425       .  S
Zr127       O629   2.414       .  S
Zr127       O641   2.332       .  S
Zr127       O654   2.335   1_556  S
Zr128      O1138   2.409       .  S
Zr128       O129   2.333       .  S
Zr128       O142   2.329   1_556  S
Zr128      O1154   2.334   1_556  S
Zr128      O1164   2.342       .  S
O129       Zr639   2.333       .  S
O130      Zr1660   2.360   1_455  S
O130       Zr638   2.331   1_554  S
O130      Zr1152   2.333   1_454  S
C131        C264   1.509       .  S
C132        C348   1.496       .  S
C133        C225   1.509       .  S
C134        C240   1.501       .  S
C135        C321   1.485       .  S
C136        C336   1.509       .  S
C137        C309   1.449   1_556  S
C138        C300   1.462   1_556  S
H139        O140   0.966       .  S
O140      Zr1149   2.356   1_455  S
O140       Zr638   2.323       .  S
O140      Zr1152   2.341   1_455  S
H141        O142   0.966       .  S
O142       Zr636   2.368       .  S
O142       Zr639   2.338   1_554  S
N143        C148   1.348   1_554  A
N143        C147   1.346   1_554  A
N143        H175   1.041       .  S
N144        C151   1.343       .  A
N144        C152   1.344       .  A
N145        C150   1.346       .  A
N145        C149   1.347       .  A
N145        H176   1.042       .  S
N146        C153   1.342       .  A
N146        C154   1.339       .  A
C147        C155   1.388       .  A
C147        C163   1.407   1_556  A
C148        C164   1.404   1_556  A
C148        C156   1.385       .  A
C149        C157   1.388       .  A
C149        C166   1.403       .  A
C150        C165   1.403       .  A
C150        C158   1.387   1_554  A
C151        C163   1.405       .  A
C151        C159   1.388       .  A
C152        C166   1.398       .  A
C152        C160   1.384       .  A
C153        C161   1.386       .  A
C153        C164   1.396       .  A
C154        C162   1.387       .  A
C154        C165   1.396       .  A
C155        C156   1.376       .  A
C155        H167   1.082       .  S
C156        H168   1.083       .  S
C157        C158   1.371   1_554  A
C157        H169   1.082   1_554  S
C158        H170   1.082       .  S
C159        C160   1.373       .  A
C159        H171   1.082       .  S
C160        H172   1.083       .  S
C161        C162   1.372       .  A
C161        H173   1.082       .  S
C162        H174   1.083       .  S
C163        C297   1.470       .  S
C164        C288   1.465       .  S
C165        C276   1.462       .  S
C166        C312   1.465       .  S
C177        C178   1.531       .  S
C177        C181   1.534       .  S
C177       C1207   1.560       .  S
C177        C468   1.555       .  S
C178        H185   1.087       .  S
C178       C1203   1.360       .  D
C179        C180   1.558       .  S
C179       C1202   1.363       .  D
C179        C261   1.502       .  S
C180        C184   1.542       .  S
C180        C182   1.560       .  S
C180        H186   1.109       .  S
C181        H187   1.086       .  S
C181       C1206   1.367       .  D
C182       C1205   1.363       .  D
C182        C252   1.501       .  S
C183       C1201   1.562       .  S
C183        H188   1.082       .  S
C183        C184   1.380       .  D
C184        C480   1.513       .  S
C189        C190   1.535       .  S
C189        C195   1.558       .  S
C189        C705   1.523       .  S
C189        C228   1.551       .  S
C190        H197   1.085       .  S
C190        C191   1.370       .  D
C191        C192   1.565       .  S
C191        C492   1.513       .  S
C192        C196   1.543       .  S
C192        C706   1.554       .  S
C192        H198   1.110       .  S
C193        C701   1.526   1_545  S
C193        H199   1.087       .  S
C193        C194   1.361       .  D
C194        C704   1.551   1_545  S
C194        C504   1.491       .  S
C195        H200   1.083       .  S
C195        C196   1.375       .  D
C196        C237   1.508       .  S
C201        C202   1.533       .  S
C201        C205   1.542       .  S
C201       C1231   1.553       .  S
C201        C381   1.560       .  S
C202        H209   1.086       .  S
C202       C1227   1.366       .  D
C203        C204   1.560       .  S
C203       C1226   1.368       .  D
C203        C357   1.512       .  S
C204        C208   1.544       .  S
C204        C206   1.548       .  S
C204        H210   1.109       .  S
C205        H211   1.083       .  S
C205       C1230   1.362       .  D
C206       C1229   1.362       .  D
C206        C345   1.504       .  S
C207       C1225   1.550       .  S
C207        H212   1.084       .  S
C207        C208   1.381       .  D
C208        C369   1.506       .  S
C213        C219   1.548       .  S
C213        C217   1.542       .  S
C213        C726   1.532       .  S
C213        C333   1.556       .  S
C214        C725   1.531   1_545  S
C214        H221   1.087       .  S
C214        C215   1.361       .  D
C215        C728   1.551   1_545  S
C215        C396   1.498       .  S
C216        C220   1.545       .  S
C216        C218   1.561       .  S
C216        C727   1.552       .  S
C216        H222   1.106       .  S
C217        H223   1.081       .  S
C217        C218   1.373       .  D
C218        C408   1.528       .  S
C219        H224   1.085       .  S
C219        C220   1.373       .  D
C220        C324   1.489       .  S
C225        C226   1.404       .  A
C225        C742   1.426       .  A
C226        C227   1.415       .  A
C226        H231   1.084       .  S
C227        C228   1.429       .  A
C227        C234   1.443       .  S
C228        C741   1.403       .  A
C229        C230   1.401       .  A
C229        C740   1.404   1_545  A
C229        H232   1.080       .  S
C230        C737   1.426       .  A
C230        C233   1.446       .  S
C233        N235   1.157       .  T
C234        N236   1.157       .  T
C237        C238   1.410       .  A
C237        C754   1.415       .  A
C238        C239   1.416       .  A
C238        H243   1.084       .  S
C239        C240   1.415       .  A
C239        C246   1.443       .  S
C240        C753   1.407       .  A
C241        C242   1.406       .  A
C241        C752   1.409       .  A
C241        H244   1.085       .  S
C242        C749   1.416       .  A
C242        C245   1.445       .  S
C245        N247   1.158       .  T
C246        N248   1.157       .  T
C249        C250   1.406       .  A
C249       C1278   1.437       .  A
C250        C251   1.412       .  A
C250        H255   1.084       .  S
C251        C252   1.421       .  A
C251        C258   1.444       .  S
C252       C1277   1.392       .  A
C253        C254   1.407       .  A
C253       C1276   1.395       .  A
C253        H256   1.085       .  S
C254       C1273   1.435       .  A
C254        C257   1.446       .  S
C257        N259   1.158       .  T
C258        N260   1.157       .  T
C261        C262   1.411       .  A
C261       C1290   1.408       .  A
C262        C263   1.419       .  A
C262        H267   1.084       .  S
C263        C264   1.416       .  A
C263        C270   1.443       .  S
C264       C1289   1.412       .  A
C265        C266   1.405       .  A
C265       C1288   1.417   1_455  A
C265        H268   1.084       .  S
C266       C1285   1.405       .  A
C266        C269   1.445       .  S
C269        N271   1.157       .  T
C270        N272   1.157       .  T
C273        C274   1.398   1_556  A
C273        C278   1.404       .  A
C274        C275   1.382       .  A
C274        H279   1.086       .  S
C275        C276   1.405       .  A
C275        C282   1.442       .  S
C276        C277   1.404   1_554  A
C277        C278   1.388       .  A
C277        H280   1.085       .  S
C278        C281   1.446       .  S
C281        N283   1.157       .  T
C282        N284   1.156       .  T
C285        C286   1.402       .  A
C285        C290   1.406   1_556  A
C286        C287   1.396       .  A
C286        H291   1.085       .  S
C287        C288   1.409   1_556  A
C287        C294   1.445       .  S
C288        C289   1.397       .  A
C289        C290   1.388       .  A
C289        H292   1.085       .  S
C290        C293   1.442       .  S
C293        N295   1.156       .  T
C294        N296   1.157       .  T
C297        C298   1.398       .  A
C297        C302   1.408   1_554  A
C298        C299   1.392       .  A
C298        H303   1.085       .  S
C299        C300   1.412       .  A
C299        C306   1.444       .  S
C300        C301   1.402   1_554  A
C301        C302   1.392       .  A
C301        H304   1.085       .  S
C302        C305   1.444       .  S
C305        N307   1.157       .  T
C306        N308   1.157       .  T
C309        C310   1.401       .  A
C309        C314   1.406   1_554  A
C310        C311   1.392       .  A
C310        H315   1.085       .  S
C311        C312   1.404       .  A
C311        C318   1.443       .  S
C312        C313   1.401   1_554  A
C313        C314   1.392       .  A
C313        H316   1.085       .  S
C314        C317   1.443       .  S
C317        N319   1.157       .  T
C318        N320   1.157       .  T
C321        C322   1.402   1_565  A
C321        C838   1.412       .  A
C322        C323   1.402       .  A
C322        H327   1.085       .  S
C323        C836   1.412   1_545  A
C323        C330   1.440       .  S
C324        C325   1.406       .  A
C324        C835   1.412       .  A
C325        C326   1.407       .  A
C325        H328   1.084       .  S
C326        C833   1.411       .  A
C326        C329   1.445       .  S
C329        N331   1.158       .  T
C330        N332   1.156       .  T
C333        C334   1.418       .  A
C333        C850   1.419       .  A
C334        C335   1.408       .  A
C334        H339   1.079       .  S
C335        C848   1.407       .  A
C335        C342   1.438       .  S
C336        C337   1.410   1_565  A
C336        C847   1.411       .  A
C337        C338   1.404       .  A
C337        H340   1.084       .  S
C338        C845   1.416   1_545  A
C338        C341   1.442       .  S
C341        N343   1.157       .  T
C342        N344   1.155       .  T
C345        C346   1.412       .  A
C345       C1374   1.413       .  A
C346        C347   1.419       .  A
C346        H351   1.084       .  S
C347        C348   1.415       .  A
C347        C354   1.443       .  S
C348       C1373   1.405       .  A
C349        C350   1.398       .  A
C349       C1372   1.407   1_455  A
C349        H352   1.086       .  S
C350       C1369   1.409       .  A
C350        C353   1.444       .  S
C353        N355   1.157       .  T
C354        N356   1.158       .  T
C357        C358   1.413       .  A
C357       C1386   1.407       .  A
C358        C359   1.417       .  A
C358        H363   1.085       .  S
C359        C360   1.419       .  A
C359        C366   1.443       .  S
C360       C1385   1.420       .  A
C361        C362   1.407       .  A
C361       C1384   1.419       .  A
C361        H364   1.084       .  S
C362       C1381   1.407       .  A
C362        C365   1.444       .  S
C365        N367   1.157       .  T
C366        N368   1.158       .  T
C369        C370   1.413       .  A
C369        C374   1.416       .  A
C370        C371   1.411       .  A
C370        H375   1.084       .  S
C371        C372   1.411       .  A
C371        C378   1.443       .  S
C372        C373   1.407       .  A
C373        C374   1.400       .  A
C373        H376   1.086       .  S
C374        C377   1.444       .  S
C377        N379   1.157       .  T
C378        N380   1.157       .  T
C381        C382   1.421       .  A
C381        C386   1.420       .  A
C382        C383   1.411       .  A
C382        H387   1.078       .  S
C383        C384   1.409       .  A
C383        C390   1.442       .  S
C384        C385   1.409       .  A
C385        C386   1.406       .  A
C385        H388   1.085       .  S
C386        C389   1.444       .  S
C389        N391   1.157       .  T
C390        N392   1.157       .  T
C393        C394   1.422       .  A
C393        C398   1.417       .  A
C394        C395   1.405       .  A
C394        H399   1.084       .  S
C395        C396   1.403       .  A
C395        C402   1.445       .  S
C396        C397   1.408       .  A
C397        C398   1.412       .  A
C397        H400   1.081       .  S
C398        C401   1.442       .  S
C401        N403   1.157       .  T
C402        N404   1.157       .  T
C405        C406   1.407       .  A
C405        C410   1.407       .  A
C406        C407   1.418       .  A
C406        H411   1.085       .  S
C407        C408   1.425       .  A
C407        C414   1.441       .  S
C408        C409   1.415       .  A
C409        C410   1.403       .  A
C409        H412   1.083       .  S
C410        C413   1.445       .  S
C413        N415   1.157       .  T
C414        N416   1.158       .  T
C417        C418   1.404       .  A
C417        C422   1.411       .  A
C418        C419   1.396       .  A
C418        H423   1.085       .  S
C419        C420   1.405       .  A
C419        C426   1.444       .  S
C420        C421   1.400       .  A
C421        C422   1.395       .  A
C421        H424   1.085       .  S
C422        C425   1.445       .  S
C425        N427   1.157       .  T
C426        N428   1.157       .  T
C429        C430   1.400       .  A
C429        C434   1.406       .  A
C430        C431   1.393       .  A
C430        H435   1.085       .  S
C431        C432   1.406       .  A
C431        C438   1.444       .  S
C432        C433   1.398       .  A
C433        C434   1.387       .  A
C433        H436   1.086       .  S
C434        C437   1.445       .  S
C437        N439   1.157       .  T
C438        N440   1.157       .  T
C441        C442   1.400       .  A
C441        C446   1.408       .  A
C442        C443   1.392       .  A
C442        H447   1.085       .  S
C443        C444   1.409       .  A
C443        C450   1.443       .  S
C444        C445   1.401       .  A
C445        C446   1.393       .  A
C445        H448   1.084       .  S
C446        C449   1.444       .  S
C449        N451   1.157       .  T
C450        N452   1.157       .  T
C453        C454   1.399       .  A
C453        C458   1.409       .  A
C454        C455   1.388       .  A
C454        H459   1.086       .  S
C455        C456   1.406       .  A
C455        C462   1.444       .  S
C456        C457   1.401       .  A
C457        C458   1.393       .  A
C457        H460   1.085       .  S
C458        C461   1.445       .  S
C461        N463   1.157       .  T
C462        N464   1.157       .  T
C465        C466   1.405       .  A
C465        C470   1.434       .  A
C466        C467   1.418       .  A
C466        H471   1.084       .  S
C467        C468   1.428       .  A
C467        C474   1.442       .  S
C468        C469   1.400       .  A
C469        C470   1.395       .  A
C469        H472   1.074       .  S
C470        C473   1.450       .  S
C473        N475   1.158       .  T
C474        N476   1.156       .  T
C477        C478   1.410       .  A
C477        C482   1.424       .  A
C478        C479   1.420       .  A
C478        H483   1.084       .  S
C479        C480   1.421       .  A
C479        C486   1.443       .  S
C480        C481   1.401       .  A
C481        C482   1.400       .  A
C481        H484   1.085       .  S
C482        C485   1.444       .  S
C485        N487   1.157       .  T
C486        N488   1.157       .  T
C489        C490   1.418       .  A
C489        C494   1.418       .  A
C490        C491   1.410       .  A
C490        H495   1.084       .  S
C491        C492   1.410       .  A
C491        C498   1.443       .  S
C492        C493   1.413       .  A
C493        C494   1.413       .  A
C493        H496   1.084       .  S
C494        C497   1.443       .  S
C497        N499   1.158       .  T
C498        N500   1.157       .  T
C501        C502   1.410       .  A
C501        C506   1.412       .  A
C502        C503   1.400       .  A
C502        H507   1.085       .  S
C503        C504   1.407       .  A
C503        C510   1.445       .  S
C504        C505   1.410       .  A
C505        C506   1.413       .  A
C505        H508   1.084       .  S
C506        C509   1.443       .  S
C509        N511   1.157       .  T
C510        N512   1.157       .  T
O513       Zr549   2.511       .  S
O513        C524   1.307       .  A
O514       Zr548   2.503       .  S
O514        C525   1.305       .  A
O515       Zr521   2.406       .  S
O515        C526   1.283       .  A
O516       Zr521   2.405       .  S
O516        C527   1.284       .  A
O517       Zr551   2.413       .  S
O517        C527   1.285       .  A
O518       Zr550   2.418       .  S
O518        C526   1.286       .  A
O519       Zr521   2.421       .  S
O519        C525   1.290       .  A
O520       Zr521   2.401       .  S
O520        C524   1.286       .  A
Zr521       O522   2.330       .  S
Zr521       O523   2.338       .  S
Zr521       O531   2.336       .  S
Zr521       O529   2.327       .  S
O522       Zr548   2.351       .  S
O522       Zr551   2.324       .  S
O523       Zr549   2.375       .  S
O523       Zr550   2.335       .  S
C524       C1013   1.494       .  S
C525        C905   1.515       .  S
C526        C932   1.448       .  S
C527        C944   1.451       .  S
H528        O529   0.965       .  S
O529       Zr548   2.360       .  S
O529       Zr550   2.329       .  S
H530        O531   0.963       .  S
O531       Zr549   2.367       .  S
O531       Zr551   2.328       .  S
O532       Zr548   2.493       .  S
O532        C555   1.303       .  A
O533       Zr549   2.517       .  S
O533        C556   1.308       .  A
O534       Zr550   2.430       .  S
O534        C557   1.291       .  A
O535       Zr551   2.412       .  S
O535        C558   1.287       .  A
O536       Zr551   2.375       .  S
O536        C559   1.277       .  A
O537       Zr550   2.412       .  S
O537        C560   1.288       .  A
O538       Zr552   2.418       .  S
O538        C561   1.288       .  A
O539       Zr552   2.405       .  S
O539        C562   1.284       .  A
O540       Zr550   2.402       .  S
O540        C561   1.284       .  A
O541       Zr551   2.414       .  S
O541        C562   1.287       .  A
O542       Zr548   2.502       .  S
O542        C557   1.305       .  A
O543       Zr549   2.525       .  S
O543        C560   1.309       .  A
O544       Zr549   2.538       .  S
O544        C559   1.311       .  A
O545       Zr548   2.515       .  S
O545        C558   1.307       .  A
O546       Zr552   2.419       .  S
O546        C555   1.288       .  A
O547       Zr552   2.445       .  S
O547        C556   1.294       .  A
Zr548       O554   2.366       .  S
Zr548       O566   2.355       .  S
Zr549       O553   2.355       .  S
Zr549       O564   2.374       .  S
Zr550       O554   2.333       .  S
Zr550       O564   2.348       .  S
Zr551       O553   2.332       .  S
Zr551       O566   2.315       .  S
Zr552       O553   2.334       .  S
Zr552       O554   2.336       .  S
Zr552       O566   2.345       .  S
Zr552       O564   2.331       .  S
C555        C917   1.482       .  S
C556       C1001   1.530       .  S
C557        C884   1.505       .  S
C558        C896   1.505       .  S
C559        C977   1.517       .  S
C560        C989   1.508       .  S
C561        C965   1.459       .  S
C562        C956   1.452       .  S
H563        O564   0.967       .  S
H565        O566   0.965       .  S
N567        C572   1.348   1_545  A
N567        H599   1.040       .  S
N568       C1599   1.345       .  A
N568        C576   1.345       .  A
N569        C574   1.349       .  A
N569        H600   1.042       .  S
N570       C1601   1.345       .  A
N570        C578   1.344       .  A
C571        C579   1.387       .  A
C571        C587   1.402       .  A
C572        C588   1.405       .  A
C572        C580   1.388       .  A
C573        C581   1.388       .  A
C573        C590   1.408       .  A
C574        C589   1.410       .  A
C574        C582   1.387       .  A
C575       N1592   1.347       .  A
C575        C587   1.402       .  A
C575        C583   1.384       .  A
C576        C590   1.406       .  A
C576        C584   1.389       .  A
C577       N1594   1.344       .  A
C577        C585   1.386       .  A
C577        C588   1.402       .  A
C578        C586   1.387       .  A
C578        C589   1.403       .  A
C579        H591   1.083       .  S
C580        H592   1.082       .  S
C581        H593   1.081       .  S
C582        H594   1.082       .  S
C583       C1608   1.371   1_455  A
C583        H595   1.082       .  S
C584       C1607   1.370       .  A
C584        H596   1.082       .  S
C585       C1610   1.374       .  A
C585        H597   1.082       .  S
C586       C1609   1.375       .  A
C586        H598   1.082       .  S
C587        C941   1.470       .  S
C588        C953   1.468       .  S
C589        C968   1.474       .  S
C590        C929   1.472       .  S
O601        C612   1.308       .  A
O602       Zr636   2.529   1_565  S
O602        C613   1.311       .  A
O603      Zr1633   2.413   1_455  S
O603        C614   1.287       .  A
O604       Zr609   2.423   1_554  S
O604        C615   1.288       .  A
O605       Zr639   2.403   1_565  S
O605        C615   1.283   1_556  A
O606       Zr638   2.400   1_565  S
O606        C614   1.284       .  A
O607       Zr609   2.392   1_554  S
O607        C613   1.282       .  A
O608       Zr609   2.419       .  S
O608        C612   1.289       .  A
Zr609      O1627   2.419   1_556  S
Zr609       O610   2.336   1_556  S
Zr609      O1635   2.332       .  S
Zr609       O619   2.329       .  S
Zr609      O1641   2.336   1_556  S
O610       Zr636   2.370   1_565  S
O610       Zr639   2.338   1_564  S
O611      Zr1633   2.337   1_455  S
O611      Zr1149   2.353   1_465  S
O611       Zr638   2.324   1_565  S
C612        C872   1.523       .  S
C613        C761   1.517       .  S
C614        C785   1.453   1_556  S
C615        C797   1.451       .  S
H616        O617   0.965       .  S
O617      Zr1633   2.329   1_454  S
O617      Zr1660   2.349   1_465  S
O617       Zr638   2.328   1_564  S
H618        O619   0.966       .  S
O619       Zr639   2.343   1_565  S
O620        C643   1.309       .  A
O621       Zr637   2.490       .  S
O621        C644   1.302       .  A
O622       Zr638   2.400   1_554  S
O622        C645   1.284       .  A
O623       Zr639   2.434   1_554  S
O623        C646   1.292       .  A
O624        C647   1.290       .  A
O625        C648   1.283       .  A
O626      Zr1664   2.402   1_455  S
O626        C649   1.283       .  A
O627       Zr640   2.423       .  S
O627        C650   1.287       .  A
O628        C649   1.282       .  A
O629        C650   1.285       .  A
O630      Zr1660   2.526   1_455  S
O630        C645   1.309       .  A
O631      Zr1661   2.531   1_455  S
O631        C648   1.310       .  A
O632       Zr637   2.470       .  S
O632        C647   1.299       .  A
O633       Zr636   2.503       .  S
O633        C646   1.305       .  A
O634       Zr640   2.401   1_554  S
O634        C643   1.286       .  A
O635       Zr640   2.402       .  S
O635        C644   1.286       .  A
Zr636      O1654   2.524       .  S
Zr636      O1641   2.352   1_545  S
Zr636      O1154   2.360       .  S
Zr637      O1655   2.508       .  S
Zr637      O1123   2.344       .  S
Zr637       O641   2.378       .  S
Zr637      O1676   2.357       .  S
Zr640      O1650   2.399       .  S
Zr640       O641   2.325       .  S
Zr640      O1666   2.334   1_556  S
Zr640       O654   2.330   1_556  S
Zr640      O1676   2.338       .  S
O642      Zr1148   2.358   1_455  S
O642      Zr1664   2.337   1_454  S
C643        C776   1.510       .  S
C644        C860   1.482       .  S
C645        C737   1.513       .  S
C646        C752   1.502       .  S
C647        C833   1.474       .  S
C648        C848   1.504       .  S
C649        C821   1.437   1_556  S
C650        C812   1.465   1_556  S
H651        O652   0.966       .  S
O652      Zr1661   2.352   1_455  S
O652      Zr1664   2.336   1_455  S
H653        O654   0.966       .  S
N655        C660   1.346       .  A
N655        C659   1.350       .  A
N655        H687   1.040       .  S
N656        C663   1.345       .  A
N656        C664   1.342       .  A
N657        C662   1.349       .  A
N657        C661   1.346       .  A
N657        H688   1.041       .  S
N658        C665   1.344       .  A
N658        C666   1.345       .  A
C659        C667   1.385   1_554  A
C659        C675   1.405       .  A
C660        C676   1.405       .  A
C660        C668   1.388   1_554  A
C661        C669   1.388       .  A
C661        C678   1.402       .  A
C662        C677   1.406       .  A
C662        C670   1.388       .  A
C663        C675   1.402       .  A
C663        C671   1.386       .  A
C664        C678   1.397       .  A
C664        C672   1.386       .  A
C665        C673   1.386       .  A
C665        C676   1.401       .  A
C666        C674   1.386       .  A
C666        C677   1.403       .  A
C667        C668   1.370       .  A
C667        H679   1.082       .  S
C668        H680   1.082       .  S
C669        C670   1.368       .  A
C669        H681   1.082   1_554  S
C670        H682   1.082   1_554  S
C671        C672   1.373       .  A
C671        H683   1.082       .  S
C672        H684   1.083       .  S
C673        C674   1.372       .  A
C673        H685   1.082       .  S
C674        H686   1.083       .  S
C675        C809   1.477       .  S
C676        C800   1.463       .  S
C677        C788   1.472       .  S
C678        C824   1.457       .  S
C689        C690   1.530       .  S
C689       C1719   1.561       .  S
C689        C693   1.530       .  S
C689        C980   1.553       .  S
C690        H697   1.087       .  S
C690       C1715   1.361       .  D
C691        C692   1.556       .  S
C691       C1714   1.357       .  D
C691        C773   1.492       .  S
C692        C696   1.541       .  S
C692        C694   1.560       .  S
C692        H698   1.109       .  S
C693        H699   1.086       .  S
C693       C1718   1.365       .  D
C694       C1717   1.367       .  D
C694        C764   1.505       .  S
C695       C1713   1.563       .  S
C695        H700   1.079       .  S
C695        C696   1.377       .  D
C696        C992   1.511       .  S
C701        C702   1.537       .  S
C701        C707   1.559       .  S
C701        C740   1.557       .  S
C702        H709   1.085       .  S
C702        C703   1.372       .  D
C703        C704   1.568       .  S
C703       C1004   1.523       .  S
C704        C708   1.543   1_565  S
C704        H710   1.109       .  S
C705        H711   1.087       .  S
C705        C706   1.358       .  D
C706       C1016   1.492       .  S
C707        H712   1.083       .  S
C707        C708   1.375   1_565  D
C708        C749   1.508       .  S
C713        C714   1.536       .  S
C713       C1743   1.557       .  S
C713        C717   1.540       .  S
C713        C893   1.561       .  S
C714        H721   1.087       .  S
C714       C1739   1.365       .  D
C715        C716   1.556       .  S
C715       C1738   1.368       .  D
C715        C869   1.508       .  S
C716        C720   1.547       .  S
C716        C718   1.547       .  S
C716        H722   1.110       .  S
C717        H723   1.081       .  S
C717       C1742   1.362       .  D
C718       C1741   1.361       .  D
C718        C857   1.493       .  S
C719       C1737   1.553       .  S
C719        H724   1.085       .  S
C719        C720   1.381       .  D
C720        C881   1.513       .  S
C725        C731   1.551       .  S
C725        C729   1.536       .  S
C725        C845   1.559       .  S
C726        H733   1.087       .  S
C726        C727   1.361       .  D
C727        C908   1.501       .  S
C728        C732   1.545       .  S
C728        C730   1.561       .  S
C728        H734   1.103   1_565  S
C729        H735   1.080       .  S
C729        C730   1.376       .  D
C730        C920   1.527       .  S
C731        H736   1.085       .  S
C731        C732   1.374       .  D
C732        C836   1.497       .  S
C737        C738   1.406   1_545  A
C738        C739   1.418       .  A
C738        H743   1.084       .  S
C739        C740   1.430       .  A
C739        C746   1.443       .  S
C741        C742   1.399       .  A
C741        H744   1.080       .  S
C742        C745   1.446       .  S
C745        N747   1.157       .  T
C746        N748   1.157       .  T
C749        C750   1.409   1_545  A
C750        C751   1.414       .  A
C750        H755   1.084       .  S
C751        C752   1.414   1_565  A
C751        C758   1.442       .  S
C753        C754   1.405       .  A
C753        H756   1.085       .  S
C754        C757   1.444       .  S
C757        N759   1.157       .  T
C758        N760   1.157       .  T
C761        C762   1.406       .  A
C761       C1790   1.436       .  A
C762        C763   1.413       .  A
C762        H767   1.084       .  S
C763        C764   1.422       .  A
C763        C770   1.443       .  S
C764       C1789   1.394       .  A
C765       C1788   1.393       .  A
C765        C766   1.406       .  A
C765        H768   1.086       .  S
C766       C1785   1.438       .  A
C766        C769   1.446       .  S
C769        N771   1.158       .  T
C770        N772   1.157       .  T
C773        C774   1.410       .  A
C773       C1802   1.404       .  A
C774        C775   1.413       .  A
C774        H779   1.085       .  S
C775        C776   1.414       .  A
C775        C782   1.442       .  S
C776       C1801   1.419       .  A
C777       C1800   1.413   1_455  A
C777        C778   1.403       .  A
C777        H780   1.085       .  S
C778       C1797   1.409       .  A
C778        C781   1.445       .  S
C781        N783   1.157       .  T
C782        N784   1.157       .  T
C785        C786   1.402       .  A
C785        C790   1.408   1_554  A
C786        C787   1.391       .  A
C786        H791   1.086       .  S
C787        C788   1.407       .  A
C787        C794   1.443       .  S
C788        C789   1.402   1_554  A
C789        C790   1.390       .  A
C789        H792   1.085       .  S
C790        C793   1.445       .  S
C793        N795   1.157       .  T
C794        N796   1.156       .  T
C797        C798   1.401   1_554  A
C797        C802   1.408       .  A
C798        C799   1.394       .  A
C798        H803   1.085       .  S
C799        C800   1.407   1_556  A
C799        C806   1.445       .  S
C800        C801   1.396       .  A
C801        C802   1.389       .  A
C801        H804   1.085       .  S
C802        C805   1.442       .  S
C805        N807   1.156       .  T
C806        N808   1.157       .  T
C809        C810   1.400       .  A
C809        C814   1.410   1_554  A
C810        C811   1.393       .  A
C810        H815   1.085       .  S
C811        C812   1.410       .  A
C811        C818   1.443       .  S
C812        C813   1.403   1_554  A
C813        C814   1.396       .  A
C813        H816   1.085       .  S
C814        C817   1.444       .  S
C817        N819   1.157       .  T
C818        N820   1.156       .  T
C821        C822   1.398       .  A
C821        C826   1.404   1_554  A
C822        C823   1.387       .  A
C822        H827   1.085       .  S
C823        C824   1.403       .  A
C823        C830   1.444       .  S
C824        C825   1.401   1_554  A
C825        C826   1.390       .  A
C825        H828   1.085       .  S
C826        C829   1.445       .  S
C829        N831   1.157       .  T
C830        N832   1.157       .  T
C833        C834   1.400       .  A
C834        C835   1.401       .  A
C834        H839   1.085       .  S
C835        C842   1.440       .  S
C836        C837   1.409       .  A
C837        C838   1.412       .  A
C837        H840   1.083       .  S
C838        C841   1.444       .  S
C841        N843   1.158       .  T
C842        N844   1.156       .  T
C845        C846   1.423       .  A
C846        C847   1.416       .  A
C846        H851   1.081       .  S
C847        C854   1.441       .  S
C848        C849   1.412       .  A
C849        C850   1.409       .  A
C849        H852   1.085       .  S
C850        C853   1.445       .  S
C853        N855   1.158       .  T
C854        N856   1.157       .  T
C857        C858   1.410       .  A
C857       C1886   1.412       .  A
C858        C859   1.413       .  A
C858        H863   1.084       .  S
C859        C860   1.410       .  A
C859        C866   1.443       .  S
C860       C1885   1.404       .  A
C861       C1884   1.408   1_455  A
C861        C862   1.398       .  A
C861        H864   1.085       .  S
C862       C1881   1.410       .  A
C862        C865   1.445       .  S
C865        N867   1.157       .  T
C866        N868   1.157       .  T
C869        C870   1.411       .  A
C869       C1898   1.408       .  A
C870        C871   1.415       .  A
C870        H875   1.085       .  S
C871        C872   1.418       .  A
C871        C878   1.442       .  S
C872       C1897   1.420       .  A
C873       C1896   1.417       .  A
C873        C874   1.400       .  A
C873        H876   1.084       .  S
C874       C1893   1.405       .  A
C874        C877   1.443       .  S
C877        N879   1.157       .  T
C878        N880   1.157       .  T
C881        C882   1.412       .  A
C881        C886   1.417       .  A
C882        C883   1.414       .  A
C882        H887   1.084       .  S
C883        C884   1.414       .  A
C883        C890   1.442       .  S
C884        C885   1.410       .  A
C885        C886   1.407       .  A
C885        H888   1.085       .  S
C886        C889   1.445       .  S
C889        N891   1.158       .  T
C890        N892   1.157       .  T
C893        C894   1.422       .  A
C893        C898   1.418       .  A
C894        C895   1.412       .  A
C894        H899   1.077       .  S
C895        C896   1.408       .  A
C895        C902   1.440       .  S
C896        C897   1.410       .  A
C897        C898   1.408       .  A
C897        H900   1.085       .  S
C898        C901   1.444       .  S
C901        N903   1.157       .  T
C902        N904   1.156       .  T
C905        C906   1.419       .  A
C905        C910   1.417       .  A
C906        C907   1.405       .  A
C906        H911   1.084       .  S
C907        C908   1.404       .  A
C907        C914   1.444       .  S
C908        C909   1.409       .  A
C909        C910   1.411       .  A
C909        H912   1.081       .  S
C910        C913   1.443       .  S
C913        N915   1.158       .  T
C914        N916   1.157       .  T
C917        C918   1.403       .  A
C917        C922   1.404       .  A
C918        C919   1.413       .  A
C918        H923   1.085       .  S
C919        C920   1.427       .  A
C919        C926   1.440       .  S
C920        C921   1.416       .  A
C921        C922   1.399       .  A
C921        H924   1.082       .  S
C922        C925   1.444       .  S
C925        N927   1.157       .  T
C926        N928   1.158       .  T
C929        C930   1.404       .  A
C929        C934   1.409       .  A
C930        C931   1.394       .  A
C930        H935   1.085       .  S
C931        C932   1.405       .  A
C931        C938   1.444       .  S
C932        C933   1.398       .  A
C933        C934   1.390       .  A
C933        H936   1.086       .  S
C934        C937   1.445       .  S
C937        N939   1.157       .  T
C938        N940   1.157       .  T
C941        C942   1.402       .  A
C941        C946   1.409       .  A
C942        C943   1.395       .  A
C942        H947   1.085       .  S
C943        C944   1.407       .  A
C943        C950   1.445       .  S
C944        C945   1.398       .  A
C945        C946   1.389       .  A
C945        H948   1.086       .  S
C946        C949   1.445       .  S
C949        N951   1.157       .  T
C950        N952   1.157       .  T
C953        C954   1.401       .  A
C953        C958   1.407       .  A
C954        C955   1.391       .  A
C954        H959   1.085       .  S
C955        C956   1.404       .  A
C955        C962   1.443       .  S
C956        C957   1.399       .  A
C957        C958   1.392       .  A
C957        H960   1.083       .  S
C958        C961   1.444       .  S
C961        N963   1.157       .  T
C962        N964   1.157       .  T
C965        C966   1.401       .  A
C965        C970   1.410       .  A
C966        C967   1.390       .  A
C966        H971   1.086       .  S
C967        C968   1.408       .  A
C967        C974   1.445       .  S
C968        C969   1.402       .  A
C969        C970   1.396       .  A
C969        H972   1.085       .  S
C970        C973   1.445       .  S
C973        N975   1.158       .  T
C974        N976   1.157       .  T
C977        C978   1.404       .  A
C977        C982   1.435       .  A
C978        C979   1.415       .  A
C978        H983   1.084       .  S
C979        C980   1.428       .  A
C979        C986   1.442       .  S
C980        C981   1.401       .  A
C981        C982   1.398       .  A
C981        H984   1.078       .  S
C982        C985   1.449       .  S
C985        N987   1.158       .  T
C986        N988   1.157       .  T
C989        C990   1.409       .  A
C989        C994   1.421       .  A
C990        C991   1.420       .  A
C990        H995   1.084       .  S
C991        C992   1.420       .  A
C991        C998   1.442       .  S
C992        C993   1.401       .  A
C993        C994   1.400       .  A
C993        H996   1.085       .  S
C994        C997   1.443       .  S
C997        N999   1.156       .  T
C998       N1000   1.157       .  T
C1001      C1002   1.420       .  A
C1001      C1006   1.420       .  A
C1002      C1003   1.415       .  A
C1002      H1007   1.084       .  S
C1003      C1004   1.413       .  A
C1003      C1010   1.443       .  S
C1004      C1005   1.414       .  A
C1005      C1006   1.415       .  A
C1005      H1008   1.084       .  S
C1006      C1009   1.442       .  S
C1009      N1011   1.157       .  T
C1010      N1012   1.158       .  T
C1013      C1014   1.411       .  A
C1013      C1018   1.412       .  A
C1014      C1015   1.401       .  A
C1014      H1019   1.085       .  S
C1015      C1016   1.409       .  A
C1015      C1022   1.446       .  S
C1016      C1017   1.408       .  A
C1017      C1018   1.413       .  A
C1017      H1020   1.084       .  S
C1018      C1021   1.442       .  S
C1021      N1023   1.157       .  T
C1022      N1024   1.157       .  T
O1025     Zr1061   2.516       .  S
O1025      C1036   1.308       .  A
O1026     Zr1060   2.516       .  S
O1026      C1037   1.307       .  A
O1027     Zr1033   2.416       .  S
O1027      C1038   1.285       .  A
O1028     Zr1033   2.409       .  S
O1028      C1039   1.285       .  A
O1029     Zr1063   2.406       .  S
O1029      C1039   1.284       .  A
O1030     Zr1062   2.414       .  S
O1030      C1038   1.285       .  A
O1031     Zr1033   2.415       .  S
O1031      C1037   1.288       .  A
O1032     Zr1033   2.404       .  S
O1032      C1036   1.287       .  A
Zr1033     O1034   2.329       .  S
Zr1033     O1035   2.337       .  S
Zr1033     O1043   2.338       .  S
Zr1033     O1041   2.326       .  S
O1034     Zr1060   2.346       .  S
O1034     Zr1063   2.323       .  S
O1035     Zr1061   2.373       .  S
O1035     Zr1062   2.335       .  S
C1036      C1525   1.500       .  S
C1037      C1417   1.518       .  S
C1038      C1444   1.450       .  S
C1039      C1456   1.450       .  S
H1040      O1041   0.964       .  S
O1041     Zr1060   2.360       .  S
O1041     Zr1062   2.335       .  S
H1042      O1043   0.963       .  S
O1043     Zr1061   2.363       .  S
O1043     Zr1063   2.327       .  S
O1044     Zr1060   2.501       .  S
O1044      C1067   1.305       .  A
O1045     Zr1061   2.516       .  S
O1045      C1068   1.308       .  A
O1046     Zr1062   2.422       .  S
O1046      C1069   1.290       .  A
O1047     Zr1063   2.407       .  S
O1047      C1070   1.286       .  A
O1048     Zr1063   2.383       .  S
O1048      C1071   1.279       .  A
O1049     Zr1062   2.420       .  S
O1049      C1072   1.289       .  A
O1050     Zr1064   2.428       .  S
O1050      C1073   1.288       .  A
O1051     Zr1064   2.403       .  S
O1051      C1074   1.283       .  A
O1052     Zr1062   2.412       .  S
O1052      C1073   1.285       .  A
O1053     Zr1063   2.407       .  S
O1053      C1074   1.285       .  A
O1054     Zr1060   2.490       .  S
O1054      C1069   1.303       .  A
O1055     Zr1061   2.507       .  S
O1055      C1072   1.306       .  A
O1056     Zr1061   2.527       .  S
O1056      C1071   1.309       .  A
O1057     Zr1060   2.517       .  S
O1057      C1070   1.308       .  A
O1058     Zr1064   2.419       .  S
O1058      C1067   1.288       .  A
O1059     Zr1064   2.431       .  S
O1059      C1068   1.292       .  A
Zr1060     O1066   2.370       .  S
Zr1060     O1078   2.356       .  S
Zr1061     O1065   2.351       .  S
Zr1061     O1076   2.376       .  S
Zr1062     O1066   2.332       .  S
Zr1062     O1076   2.342       .  S
Zr1063     O1065   2.326       .  S
Zr1063     O1078   2.323       .  S
Zr1064     O1065   2.337       .  S
Zr1064     O1066   2.328       .  S
Zr1064     O1078   2.349       .  S
Zr1064     O1076   2.334       .  S
C1067      C1429   1.488       .  S
C1068      C1513   1.525       .  S
C1069      C1396   1.496       .  S
C1070      C1408   1.502       .  S
C1071      C1489   1.513       .  S
C1072      C1501   1.504       .  S
C1073      C1477   1.460       .  S
C1074      C1468   1.445       .  S
H1075      O1076   0.967       .  S
H1077      O1078   0.965       .  S
N1079      C1084   1.347       .  A
N1079      C1595   1.347       .  A
N1079      H1111   1.040       .  S
N1080      C1088   1.345   1_455  A
N1081      C1086   1.351       .  A
N1081      C1597   1.351       .  A
N1081      H1112   1.040       .  S
N1082      C1090   1.346   1_455  A
C1083      N1591   1.347       .  A
C1083      C1091   1.387       .  A
C1083      C1099   1.405       .  A
C1084      C1100   1.404       .  A
C1084      C1092   1.388       .  A
C1085      N1593   1.351   1_545  A
C1085      C1093   1.386       .  A
C1085      C1102   1.408       .  A
C1086      C1101   1.410       .  A
C1086      C1094   1.386       .  A
C1087      C1099   1.401       .  A
C1087      C1095   1.385       .  A
C1088      C1102   1.404       .  A
C1088      C1096   1.388       .  A
C1089      C1097   1.387       .  A
C1089      C1100   1.401       .  A
C1090      C1098   1.385   1_655  A
C1090      C1101   1.402       .  A
C1091      C1604   1.371   1_545  A
C1091      H1103   1.083       .  S
C1092      C1603   1.370       .  A
C1092      H1104   1.083       .  S
C1093      C1606   1.371   1_545  A
C1093      H1105   1.081       .  S
C1094      C1605   1.369       .  A
C1094      H1106   1.082       .  S
C1095      H1107   1.082       .  S
C1096      H1108   1.082       .  S
C1097      H1109   1.083       .  S
C1098      H1110   1.082   1_455  S
C1099      C1453   1.468       .  S
C1100      C1465   1.461       .  S
C1101      C1480   1.476       .  S
C1102      C1441   1.473       .  S
O1113     Zr1661   2.512       .  S
O1113      C1124   1.307       .  A
O1114     Zr1148   2.529       .  S
O1114      C1125   1.311       .  A
O1115      C1126   1.285       .  A
O1116     Zr1121   2.420       .  S
O1116      C1127   1.287       .  A
O1117     Zr1151   2.408       .  S
O1117      C1127   1.284       .  A
O1118     Zr1150   2.399       .  S
O1118      C1126   1.284       .  A
O1119     Zr1121   2.408   1_554  S
O1119      C1125   1.285       .  A
O1120     Zr1121   2.419       .  S
O1120      C1124   1.290       .  A
Zr1121     O1122   2.328   1_556  S
Zr1121     O1131   2.324       .  S
O1122     Zr1148   2.365       .  S
O1122     Zr1151   2.331   1_554  S
O1123     Zr1150   2.333       .  S
C1124      C1384   1.518       .  S
C1125      C1273   1.522       .  S
C1126      C1297   1.443   1_556  S
C1127      C1309   1.455   1_556  S
H1128      O1129   0.965       .  S
O1129     Zr1150   2.332   1_554  S
H1130      O1131   0.966       .  S
O1131     Zr1661   2.374       .  S
O1131     Zr1151   2.342       .  S
O1132     Zr1660   2.524       .  S
O1132      C1155   1.309       .  A
O1133     Zr1149   2.510       .  S
O1133      C1156   1.306       .  A
O1134     Zr1150   2.402   1_554  S
O1134      C1157   1.285       .  A
O1135     Zr1151   2.429   1_554  S
O1135      C1158   1.291       .  A
O1136     Zr1663   2.429       .  S
O1136      C1159   1.290       .  A
O1137     Zr1662   2.398       .  S
O1137      C1160   1.285       .  A
O1138      C1161   1.284       .  A
O1139     Zr1152   2.423       .  S
O1139      C1162   1.287       .  A
O1140     Zr1662   2.406   1_545  S
O1140      C1161   1.283       .  A
O1141     Zr1663   2.396       .  S
O1141      C1162   1.282       .  A
O1142      C1157   1.309       .  A
O1143      C1160   1.306       .  A
O1144     Zr1149   2.485   1_565  S
O1144      C1159   1.302   1_565  A
O1145     Zr1148   2.509       .  S
O1145      C1158   1.306       .  A
O1146     Zr1152   2.407   1_554  S
O1146      C1155   1.287       .  A
O1147     Zr1152   2.405       .  S
O1147      C1156   1.287       .  A
Zr1148     O1644   2.519       .  S
Zr1148     O1678   2.375       .  S
Zr1149     O1625   2.498   1_545  S
Zr1149     O1643   2.373   1_545  S
Zr1149     O1153   2.374       .  S
Zr1150     O1649   2.402       .  S
Zr1150     O1652   2.422       .  S
Zr1150     O1666   2.323   1_556  S
Zr1150     O1676   2.320       .  S
Zr1151     O1648   2.410       .  S
Zr1151     O1653   2.411       .  S
Zr1151     O1665   2.337       .  S
Zr1151     O1678   2.334   1_556  S
Zr1152     O1153   2.332       .  S
Zr1152     O1166   2.327   1_556  S
O1153     Zr1663   2.336       .  S
O1154     Zr1662   2.330   1_544  S
C1155      C1288   1.512       .  S
C1156      C1372   1.492       .  S
C1157      C1249   1.510       .  S
C1158      C1264   1.504       .  S
C1159      C1345   1.484   1_545  S
C1160      C1360   1.495       .  S
C1161      C1333   1.444   1_556  S
C1162      C1324   1.448       .  S
H1163      O1164   0.966       .  S
O1164     Zr1662   2.328   1_545  S
H1165      O1166   0.966       .  S
O1166     Zr1660   2.371       .  S
O1166     Zr1663   2.339   1_554  S
N1167      C1172   1.346   1_554  A
N1167      C1171   1.346   1_554  A
N1167      H1199   1.040       .  S
N1168      C1175   1.341       .  A
N1168      C1176   1.342       .  A
N1169      C1174   1.347       .  A
N1169      C1173   1.349       .  A
N1169      H1200   1.041       .  S
N1170      C1177   1.346       .  A
N1170      C1178   1.343       .  A
C1171      C1179   1.386       .  A
C1171      C1187   1.402   1_556  A
C1172      C1188   1.403   1_556  A
C1172      C1180   1.387       .  A
C1173      C1181   1.386       .  A
C1173      C1190   1.402       .  A
C1174      C1189   1.405       .  A
C1174      C1182   1.389       .  A
C1175      C1187   1.399       .  A
C1175      C1183   1.387       .  A
C1176      C1190   1.394       .  A
C1176      C1184   1.385       .  A
C1177      C1185   1.386       .  A
C1177      C1188   1.403       .  A
C1178      C1186   1.387       .  A
C1178      C1189   1.403       .  A
C1179      C1180   1.374       .  A
C1179      H1191   1.082       .  S
C1180      H1192   1.082       .  S
C1181      C1182   1.368       .  A
C1181      H1193   1.082   1_554  S
C1182      H1194   1.082   1_554  S
C1183      C1184   1.373       .  A
C1183      H1195   1.082       .  S
C1184      H1196   1.083       .  S
C1185      C1186   1.374       .  A
C1185      H1197   1.082       .  S
C1186      H1198   1.083       .  S
C1187      C1321   1.460       .  S
C1188      C1312   1.468       .  S
C1189      C1300   1.464       .  S
C1190      C1336   1.463       .  S
C1201      C1202   1.533       .  S
C1201      C1205   1.527       .  S
C1201      C1492   1.553       .  S
C1202      H1209   1.086       .  S
C1203      C1204   1.556   1_455  S
C1203      C1285   1.498       .  S
C1204      C1208   1.543       .  S
C1204      C1206   1.563   1_655  S
C1204      H1210   1.110       .  S
C1205      H1211   1.087       .  S
C1206      C1276   1.509   1_455  S
C1207      H1212   1.079       .  S
C1207      C1208   1.374   1_455  D
C1208      C1504   1.509       .  S
C1213      C1214   1.535       .  S
C1213      C1219   1.557       .  S
C1213      C1729   1.525       .  S
C1213      C1252   1.554       .  S
C1214      H1221   1.085       .  S
C1214      C1215   1.370       .  D
C1215      C1216   1.566       .  S
C1215      C1516   1.514       .  S
C1216      C1220   1.547       .  S
C1216      C1730   1.553       .  S
C1216      H1222   1.110       .  S
C1217      C1725   1.526   1_545  S
C1217      H1223   1.087       .  S
C1217      C1218   1.360       .  D
C1218      C1728   1.554   1_545  S
C1218      C1528   1.496       .  S
C1219      H1224   1.084       .  S
C1219      C1220   1.376       .  D
C1220      C1261   1.510       .  S
C1225      C1226   1.539       .  S
C1225      C1229   1.543       .  S
C1225      C1405   1.566       .  S
C1226      H1233   1.086       .  S
C1227      C1228   1.557   1_455  S
C1227      C1381   1.507   1_455  S
C1228      C1232   1.541       .  S
C1228      C1230   1.545   1_655  S
C1228      H1234   1.109       .  S
C1229      H1235   1.078       .  S
C1230      C1369   1.496       .  S
C1231      H1236   1.084       .  S
C1231      C1232   1.381   1_455  D
C1232      C1393   1.507       .  S
C1237      C1750   1.534       .  S
C1237      C1243   1.548       .  S
C1237      C1241   1.538       .  S
C1237      C1357   1.558       .  S
C1238      C1749   1.533   1_545  S
C1238      H1245   1.087       .  S
C1238      C1239   1.361       .  D
C1239      C1752   1.550   1_545  S
C1239      C1420   1.501       .  S
C1240      C1751   1.550       .  S
C1240      C1244   1.546       .  S
C1240      C1242   1.563       .  S
C1240      H1246   1.104       .  S
C1241      H1247   1.079       .  S
C1241      C1242   1.372       .  D
C1242      C1432   1.532       .  S
C1243      H1248   1.085       .  S
C1243      C1244   1.374       .  D
C1244      C1348   1.492       .  S
C1249      C1250   1.405       .  A
C1249      C1766   1.424       .  A
C1250      C1251   1.418       .  A
C1250      H1255   1.084       .  S
C1251      C1252   1.431       .  A
C1251      C1258   1.443       .  S
C1252      C1765   1.403       .  A
C1253      C1764   1.405   1_545  A
C1253      C1254   1.400       .  A
C1253      H1256   1.081       .  S
C1254      C1761   1.424       .  A
C1254      C1257   1.445       .  S
C1257      N1259   1.157       .  T
C1258      N1260   1.158       .  T
C1261      C1262   1.410       .  A
C1261      C1778   1.416       .  A
C1262      C1263   1.416       .  A
C1262      H1267   1.084       .  S
C1263      C1264   1.415       .  A
C1263      C1270   1.442       .  S
C1264      C1777   1.409       .  A
C1265      C1776   1.409       .  A
C1265      C1266   1.406       .  A
C1265      H1268   1.086       .  S
C1266      C1773   1.420       .  A
C1266      C1269   1.446       .  S
C1269      N1271   1.158       .  T
C1270      N1272   1.157       .  T
C1273      C1274   1.407       .  A
C1274      C1275   1.414       .  A
C1274      H1279   1.084       .  S
C1275      C1276   1.422       .  A
C1275      C1282   1.443   1_655  S
C1277      C1278   1.404       .  A
C1277      H1280   1.086       .  S
C1278      C1281   1.446       .  S
C1281      N1283   1.158       .  T
C1282      N1284   1.157       .  T
C1285      C1286   1.411   1_455  A
C1286      C1287   1.416       .  A
C1286      H1291   1.085       .  S
C1287      C1288   1.415       .  A
C1287      C1294   1.442       .  S
C1289      C1290   1.405       .  A
C1289      H1292   1.085       .  S
C1290      C1293   1.444       .  S
C1293      N1295   1.157       .  T
C1294      N1296   1.157       .  T
C1297      C1298   1.400       .  A
C1297      C1302   1.404   1_554  A
C1298      C1299   1.389       .  A
C1298      H1303   1.086       .  S
C1299      C1300   1.407       .  A
C1299      C1306   1.444       .  S
C1300      C1301   1.401   1_554  A
C1301      C1302   1.388       .  A
C1301      H1304   1.085       .  S
C1302      C1305   1.445       .  S
C1305      N1307   1.157       .  T
C1306      N1308   1.157       .  T
C1309      C1310   1.401   1_554  A
C1309      C1314   1.409       .  A
C1310      C1311   1.394       .  A
C1310      H1315   1.085       .  S
C1311      C1312   1.406   1_556  A
C1311      C1318   1.443       .  S
C1312      C1313   1.399       .  A
C1313      C1314   1.393       .  A
C1313      H1316   1.085       .  S
C1314      C1317   1.443       .  S
C1317      N1319   1.157       .  T
C1318      N1320   1.157       .  T
C1321      C1322   1.397       .  A
C1321      C1326   1.406   1_554  A
C1322      C1323   1.389       .  A
C1322      H1327   1.085       .  S
C1323      C1324   1.407   1_554  A
C1323      C1330   1.445       .  S
C1324      C1325   1.400       .  A
C1325      C1326   1.392       .  A
C1325      H1328   1.085       .  S
C1326      C1329   1.444       .  S
C1329      N1331   1.157       .  T
C1330      N1332   1.157       .  T
C1333      C1334   1.399       .  A
C1333      C1338   1.405   1_554  A
C1334      C1335   1.389       .  A
C1334      H1339   1.085       .  S
C1335      C1336   1.403       .  A
C1335      C1342   1.443       .  S
C1336      C1337   1.403   1_554  A
C1337      C1338   1.394       .  A
C1337      H1340   1.085       .  S
C1338      C1341   1.445       .  S
C1341      N1343   1.157       .  T
C1342      N1344   1.157       .  T
C1345      C1346   1.403   1_565  A
C1345      C1862   1.413       .  A
C1346      C1347   1.402       .  A
C1346      H1351   1.085       .  S
C1347      C1860   1.410   1_545  A
C1347      C1354   1.441       .  S
C1348      C1859   1.413       .  A
C1348      C1349   1.406       .  A
C1349      C1350   1.407       .  A
C1349      H1352   1.084       .  S
C1350      C1857   1.409       .  A
C1350      C1353   1.444       .  S
C1353      N1355   1.157       .  T
C1354      N1356   1.156       .  T
C1357      C1358   1.423       .  A
C1357      C1874   1.418       .  A
C1358      C1359   1.409       .  A
C1358      H1363   1.078       .  S
C1359      C1872   1.405       .  A
C1359      C1366   1.442       .  S
C1360      C1871   1.407       .  A
C1360      C1361   1.407   1_565  A
C1361      C1362   1.403       .  A
C1361      H1364   1.084       .  S
C1362      C1869   1.417   1_545  A
C1362      C1365   1.442       .  S
C1365      N1367   1.157       .  T
C1366      N1368   1.156       .  T
C1369      C1370   1.411   1_455  A
C1370      C1371   1.416       .  A
C1370      H1375   1.084       .  S
C1371      C1372   1.413       .  A
C1371      C1378   1.442       .  S
C1373      C1374   1.399       .  A
C1373      H1376   1.085       .  S
C1374      C1377   1.445       .  S
C1377      N1379   1.157       .  T
C1378      N1380   1.157       .  T
C1381      C1382   1.412   1_655  A
C1382      C1383   1.413   1_455  A
C1382      H1387   1.085       .  S
C1383      C1384   1.417       .  A
C1383      C1390   1.442       .  S
C1385      C1386   1.409       .  A
C1385      H1388   1.084       .  S
C1386      C1389   1.443       .  S
C1389      N1391   1.157       .  T
C1390      N1392   1.158       .  T
C1393      C1394   1.413       .  A
C1393      C1398   1.415       .  A
C1394      C1395   1.412       .  A
C1394      H1399   1.084       .  S
C1395      C1396   1.412       .  A
C1395      C1402   1.443       .  S
C1396      C1397   1.408       .  A
C1397      C1398   1.401       .  A
C1397      H1400   1.086       .  S
C1398      C1401   1.444       .  S
C1401      N1403   1.157       .  T
C1402      N1404   1.157       .  T
C1405      C1406   1.423       .  A
C1405      C1410   1.421       .  A
C1406      C1407   1.410       .  A
C1406      H1411   1.074       .  S
C1407      C1408   1.407       .  A
C1407      C1414   1.443       .  S
C1408      C1409   1.409       .  A
C1409      C1410   1.410       .  A
C1409      H1412   1.085       .  S
C1410      C1413   1.444       .  S
C1413      N1415   1.157       .  T
C1414      N1416   1.157       .  T
C1417      C1418   1.421       .  A
C1417      C1422   1.418       .  A
C1418      C1419   1.407       .  A
C1418      H1423   1.084       .  S
C1419      C1420   1.404       .  A
C1419      C1426   1.445       .  S
C1420      C1421   1.409       .  A
C1421      C1422   1.413       .  A
C1421      H1424   1.083       .  S
C1422      C1425   1.442       .  S
C1425      N1427   1.157       .  T
C1426      N1428   1.157   1_545  T
C1429      C1430   1.405       .  A
C1429      C1434   1.403       .  A
C1430      C1431   1.416       .  A
C1430      H1435   1.085       .  S
C1431      C1432   1.426       .  A
C1431      C1438   1.440       .  S
C1432      C1433   1.419       .  A
C1433      C1434   1.401       .  A
C1433      H1436   1.082       .  S
C1434      C1437   1.445       .  S
C1437      N1439   1.157       .  T
C1438      N1440   1.158       .  T
C1441      C1442   1.403       .  A
C1441      C1446   1.409       .  A
C1442      C1443   1.394       .  A
C1442      H1447   1.085       .  S
C1443      C1444   1.404       .  A
C1443      C1450   1.445       .  S
C1444      C1445   1.399       .  A
C1445      C1446   1.393       .  A
C1445      H1448   1.085       .  S
C1446      C1449   1.445       .  S
C1449      N1451   1.157       .  T
C1450      N1452   1.157       .  T
C1453      C1454   1.402       .  A
C1453      C1458   1.407       .  A
C1454      C1455   1.394       .  A
C1454      H1459   1.085       .  S
C1455      C1456   1.407       .  A
C1455      C1462   1.445       .  S
C1456      C1457   1.399       .  A
C1457      C1458   1.388       .  A
C1457      H1460   1.086       .  S
C1458      C1461   1.445       .  S
C1461      N1463   1.157       .  T
C1462      N1464   1.157       .  T
C1465      C1466   1.400       .  A
C1465      C1470   1.406       .  A
C1466      C1467   1.389       .  A
C1466      H1471   1.085       .  S
C1467      C1468   1.404       .  A
C1467      C1474   1.444       .  S
C1468      C1469   1.398       .  A
C1469      C1470   1.390       .  A
C1469      H1472   1.083       .  S
C1470      C1473   1.444       .  S
C1473      N1475   1.157       .  T
C1474      N1476   1.157       .  T
C1477      C1478   1.402       .  A
C1477      C1482   1.407       .  A
C1478      C1479   1.394       .  A
C1478      H1483   1.085       .  S
C1479      C1480   1.407       .  A
C1479      C1486   1.444       .  S
C1480      C1481   1.404       .  A
C1481      C1482   1.397       .  A
C1481      H1484   1.085       .  S
C1482      C1485   1.445       .  S
C1485      N1487   1.158       .  T
C1486      N1488   1.157       .  T
C1489      C1490   1.404       .  A
C1489      C1494   1.431       .  A
C1490      C1491   1.416       .  A
C1490      H1495   1.084       .  S
C1491      C1492   1.429       .  A
C1491      C1498   1.443       .  S
C1492      C1493   1.401       .  A
C1493      C1494   1.398       .  A
C1493      H1496   1.079       .  S
C1494      C1497   1.448       .  S
C1497      N1499   1.158       .  T
C1498      N1500   1.157       .  T
C1501      C1502   1.408       .  A
C1501      C1506   1.421       .  A
C1502      C1503   1.416       .  A
C1502      H1507   1.084       .  S
C1503      C1504   1.417       .  A
C1503      C1510   1.441       .  S
C1504      C1505   1.404       .  A
C1505      C1506   1.401       .  A
C1505      H1508   1.085       .  S
C1506      C1509   1.444       .  S
C1509      N1511   1.157       .  T
C1510      N1512   1.157       .  T
C1513      C1514   1.421       .  A
C1513      C1518   1.418       .  A
C1514      C1515   1.414       .  A
C1514      H1519   1.084       .  S
C1515      C1516   1.410       .  A
C1515      C1522   1.444       .  S
C1516      C1517   1.412       .  A
C1517      C1518   1.413       .  A
C1517      H1520   1.085       .  S
C1518      C1521   1.442       .  S
C1521      N1523   1.157       .  T
C1522      N1524   1.157       .  T
C1525      C1526   1.412       .  A
C1525      C1530   1.413       .  A
C1526      C1527   1.402       .  A
C1526      H1531   1.085       .  S
C1527      C1528   1.409       .  A
C1527      C1534   1.446       .  S
C1528      C1529   1.410       .  A
C1529      C1530   1.415       .  A
C1529      H1532   1.084       .  S
C1530      C1533   1.442       .  S
C1533      N1535   1.157       .  T
C1534      N1536   1.157       .  T
O1537     Zr1573   2.513       .  S
O1537      C1548   1.307       .  A
O1538     Zr1572   2.504       .  S
O1538      C1549   1.305       .  A
O1539     Zr1545   2.404       .  S
O1539      C1550   1.283       .  A
O1540     Zr1545   2.413       .  S
O1540      C1551   1.285       .  A
O1541     Zr1575   2.408       .  S
O1541      C1551   1.283       .  A
O1542     Zr1574   2.410       .  S
O1542      C1550   1.285       .  A
O1543     Zr1545   2.418       .  S
O1543      C1549   1.289       .  A
O1544     Zr1545   2.400       .  S
O1544      C1548   1.286       .  A
Zr1545     O1546   2.327       .  S
Zr1545     O1547   2.341       .  S
Zr1545     O1555   2.331       .  S
Zr1545     O1553   2.327       .  S
O1546     Zr1572   2.351       .  S
O1546     Zr1575   2.325       .  S
O1547     Zr1573   2.371       .  S
O1547     Zr1574   2.334       .  S
C1548      C2037   1.494       .  S
C1549      C1929   1.515       .  S
C1550      C1956   1.443       .  S
C1551      C1968   1.448       .  S
H1552      O1553   0.964       .  S
O1553     Zr1572   2.353       .  S
O1553     Zr1574   2.334       .  S
H1554      O1555   0.963       .  S
O1555     Zr1573   2.362       .  S
O1555     Zr1575   2.325       .  S
O1556     Zr1572   2.485       .  S
O1556      C1579   1.302       .  A
O1557     Zr1573   2.513       .  S
O1557      C1580   1.308       .  A
O1558     Zr1574   2.428       .  S
O1558      C1581   1.290       .  A
O1559     Zr1575   2.401       .  S
O1559      C1582   1.285       .  A
O1560     Zr1575   2.370       .  S
O1560      C1583   1.275       .  A
O1561     Zr1574   2.424       .  S
O1561      C1584   1.290       .  A
O1562     Zr1576   2.424       .  S
O1562      C1585   1.289       .  A
O1563     Zr1576   2.416       .  S
O1563      C1586   1.286       .  A
O1564     Zr1574   2.405       .  S
O1564      C1585   1.284       .  A
O1565     Zr1575   2.403       .  S
O1565      C1586   1.285       .  A
O1566     Zr1572   2.514       .  S
O1566      C1581   1.308       .  A
O1567     Zr1573   2.506       .  S
O1567      C1584   1.306       .  A
O1568     Zr1573   2.525       .  S
O1568      C1583   1.308       .  A
O1569     Zr1572   2.525       .  S
O1569      C1582   1.309       .  A
O1570     Zr1576   2.424       .  S
O1570      C1579   1.289       .  A
O1571     Zr1576   2.448       .  S
O1571      C1580   1.295       .  A
Zr1572     O1578   2.368       .  S
Zr1572     O1590   2.356       .  S
Zr1573     O1577   2.357       .  S
Zr1573     O1588   2.375       .  S
Zr1574     O1578   2.336       .  S
Zr1574     O1588   2.345       .  S
Zr1575     O1577   2.327       .  S
Zr1575     O1590   2.314       .  S
Zr1576     O1577   2.336       .  S
Zr1576     O1578   2.336       .  S
Zr1576     O1590   2.345       .  S
Zr1576     O1588   2.338       .  S
C1579      C1941   1.480       .  S
C1580      C2025   1.529       .  S
C1581      C1908   1.505       .  S
C1582      C1920   1.505       .  S
C1583      C2001   1.512       .  S
C1584      C2013   1.503       .  S
C1585      C1989   1.461       .  S
C1586      C1980   1.455       .  S
H1587      O1588   0.967       .  S
H1589      O1590   0.965       .  S
N1591      C1596   1.349   1_545  A
N1591      H1623   1.041   1_545  S
N1592      C1600   1.345   1_455  A
N1593      C1598   1.350       .  A
N1593      H1624   1.041       .  S
N1594      C1602   1.344   1_455  A
C1595      C1603   1.386       .  A
C1595      C1611   1.402       .  A
C1596      C1612   1.406       .  A
C1596      C1604   1.388       .  A
C1597      C1605   1.389       .  A
C1597      C1614   1.411       .  A
C1598      C1613   1.411       .  A
C1598      C1606   1.388       .  A
C1599      C1611   1.399       .  A
C1599      C1607   1.384       .  A
C1600      C1614   1.408       .  A
C1600      C1608   1.389       .  A
C1601      C1609   1.387       .  A
C1601      C1612   1.404       .  A
C1602      C1610   1.386   1_655  A
C1602      C1613   1.401       .  A
C1603      H1615   1.082       .  S
C1604      H1616   1.082       .  S
C1605      H1617   1.081       .  S
C1606      H1618   1.082       .  S
C1607      H1619   1.083       .  S
C1608      H1620   1.081       .  S
C1609      H1621   1.083       .  S
C1610      H1622   1.082   1_455  S
C1611      C1965   1.465       .  S
C1612      C1977   1.472       .  S
C1613      C1992   1.475       .  S
C1614      C1953   1.471       .  S
O1625      C1636   1.304       .  A
O1626     Zr1660   2.535   1_565  S
O1626      C1637   1.311       .  A
O1627      C1638   1.287       .  A
O1628     Zr1633   2.425       .  S
O1628      C1639   1.287       .  A
O1629     Zr1663   2.398   1_565  S
O1629      C1639   1.282       .  A
O1630     Zr1662   2.405       .  S
O1630      C1638   1.284   1_556  A
O1631     Zr1633   2.397   1_554  S
O1631      C1637   1.282       .  A
O1632     Zr1633   2.403       .  S
O1632      C1636   1.287       .  A
Zr1633     O1634   2.326   1_556  S
Zr1633     O1643   2.326       .  S
O1634     Zr1660   2.370   1_565  S
O1634     Zr1663   2.337   1_564  S
O1635     Zr1662   2.329       .  S
C1636      C1896   1.509       .  S
C1637      C1785   1.523       .  S
C1638      C1809   1.452       .  S
C1639      C1821   1.452   1_556  S
H1640      O1641   0.965       .  S
O1641     Zr1662   2.328   1_554  S
H1642      O1643   0.966       .  S
O1643     Zr1663   2.335   1_565  S
O1644      C1667   1.309       .  A
O1645     Zr1661   2.508       .  S
O1645      C1668   1.306       .  A
O1646     Zr1662   2.404   1_544  S
O1646      C1669   1.285       .  A
O1647     Zr1663   2.431   1_554  S
O1647      C1670   1.292       .  A
O1648      C1671   1.287       .  A
O1649      C1672   1.285       .  A
O1650      C1673   1.282       .  A
O1651     Zr1664   2.423       .  S
O1651      C1674   1.287       .  A
O1652      C1673   1.286       .  A
O1653      C1674   1.284       .  A
O1654      C1669   1.309       .  A
O1655      C1672   1.305       .  A
O1656     Zr1661   2.483       .  S
O1656      C1671   1.302       .  A
O1657     Zr1660   2.507       .  S
O1657      C1670   1.306       .  A
O1658     Zr1664   2.396   1_554  S
O1658      C1667   1.285       .  A
O1659     Zr1664   2.410       .  S
O1659      C1668   1.287       .  A
Zr1661     O1665   2.374       .  S
Zr1664     O1665   2.321       .  S
Zr1664     O1678   2.334   1_556  S
C1667      C1800   1.502       .  S
C1668      C1884   1.493       .  S
C1669      C1761   1.511       .  S
C1670      C1776   1.505       .  S
C1671      C1857   1.477       .  S
C1672      C1872   1.494       .  S
C1673      C1845   1.448   1_556  S
C1674      C1836   1.459   1_556  S
H1675      O1676   0.966       .  S
H1677      O1678   0.966       .  S
N1679      C1684   1.348       .  A
N1679      C1683   1.349       .  A
N1679      H1711   1.037       .  S
N1680      C1687   1.347       .  A
N1680      C1688   1.345       .  A
N1681      C1686   1.351       .  A
N1681      C1685   1.350       .  A
N1681      H1712   1.039       .  S
N1682      C1689   1.347       .  A
N1682      C1690   1.346       .  A
C1683      C1691   1.387   1_554  A
C1683      C1699   1.407       .  A
C1684      C1700   1.407       .  A
C1684      C1692   1.388   1_554  A
C1685      C1693   1.387       .  A
C1685      C1702   1.407       .  A
C1686      C1701   1.410       .  A
C1686      C1694   1.388       .  A
C1687      C1699   1.405       .  A
C1687      C1695   1.386       .  A
C1688      C1702   1.401       .  A
C1688      C1696   1.386       .  A
C1689      C1697   1.386       .  A
C1689      C1700   1.405       .  A
C1690      C1698   1.386       .  A
C1690      C1701   1.404       .  A
C1691      C1692   1.371       .  A
C1691      H1703   1.083       .  S
C1692      H1704   1.082       .  S
C1693      C1694   1.367       .  A
C1693      H1705   1.082       .  S
C1694      H1706   1.082       .  S
C1695      C1696   1.370       .  A
C1695      H1707   1.082       .  S
C1696      H1708   1.083       .  S
C1697      C1698   1.371       .  A
C1697      H1709   1.082       .  S
C1698      H1710   1.083       .  S
C1699      C1833   1.472       .  S
C1700      C1824   1.469       .  S
C1701      C1812   1.476       .  S
C1702      C1848   1.468       .  S
C1713      C1714   1.527       .  S
C1713      C1717   1.532       .  S
C1713      C2004   1.552       .  S
C1714      H1721   1.087       .  S
C1715      C1716   1.558   1_455  S
C1715      C1797   1.495       .  S
C1716      C1720   1.544       .  S
C1716      C1718   1.561   1_655  S
C1716      H1722   1.110       .  S
C1717      H1723   1.086       .  S
C1718      C1788   1.506   1_455  S
C1719      H1724   1.082       .  S
C1719      C1720   1.375   1_455  D
C1720      C2016   1.508       .  S
C1725      C1726   1.536       .  S
C1725      C1731   1.555       .  S
C1725      C1764   1.556       .  S
C1726      H1733   1.084       .  S
C1726      C1727   1.372       .  D
C1727      C1728   1.572       .  S
C1727      C2028   1.523       .  S
C1728      C1732   1.550   1_565  S
C1728      H1734   1.109       .  S
C1729      H1735   1.087       .  S
C1729      C1730   1.361       .  D
C1730      C2040   1.496       .  S
C1731      H1736   1.083       .  S
C1731      C1732   1.375   1_565  D
C1732      C1773   1.515       .  S
C1737      C1738   1.539       .  S
C1737      C1741   1.539       .  S
C1737      C1917   1.564       .  S
C1738      H1745   1.086       .  S
C1739      C1740   1.551   1_455  S
C1739      C1893   1.496   1_455  S
C1740      C1744   1.540       .  S
C1740      C1742   1.546   1_655  S
C1740      H1746   1.111       .  S
C1741      H1747   1.080       .  S
C1742      C1881   1.494       .  S
C1743      H1748   1.085       .  S
C1743      C1744   1.380   1_455  D
C1744      C1905   1.508       .  S
C1749      C1755   1.550       .  S
C1749      C1753   1.536       .  S
C1749      C1869   1.555       .  S
C1750      H1757   1.086       .  S
C1750      C1751   1.363       .  D
C1751      C1932   1.501       .  S
C1752      C1756   1.543       .  S
C1752      C1754   1.558       .  S
C1752      H1758   1.102       .  S
C1753      H1759   1.079       .  S
C1753      C1754   1.373       .  D
C1754      C1944   1.524       .  S
C1755      H1760   1.085       .  S
C1755      C1756   1.375       .  D
C1756      C1860   1.494       .  S
C1761      C1762   1.406   1_545  A
C1762      C1763   1.418       .  A
C1762      H1767   1.084       .  S
C1763      C1764   1.430       .  A
C1763      C1770   1.443       .  S
C1765      C1766   1.399       .  A
C1765      H1768   1.081       .  S
C1766      C1769   1.444       .  S
C1769      N1771   1.157       .  T
C1770      N1772   1.158       .  T
C1773      C1774   1.411   1_545  A
C1774      C1775   1.416       .  A
C1774      H1779   1.084       .  S
C1775      C1776   1.414   1_565  A
C1775      C1782   1.442       .  S
C1777      C1778   1.406       .  A
C1777      H1780   1.085       .  S
C1778      C1781   1.445       .  S
C1781      N1783   1.158       .  T
C1782      N1784   1.157       .  T
C1785      C1786   1.408       .  A
C1786      C1787   1.415   1_655  A
C1786      H1791   1.084       .  S
C1787      C1788   1.421   1_455  A
C1787      C1794   1.444       .  S
C1789      C1790   1.404       .  A
C1789      H1792   1.085       .  S
C1790      C1793   1.446       .  S
C1793      N1795   1.158       .  T
C1794      N1796   1.157       .  T
C1797      C1798   1.411   1_455  A
C1798      C1799   1.414       .  A
C1798      H1803   1.084       .  S
C1799      C1800   1.411       .  A
C1799      C1806   1.442       .  S
C1801      C1802   1.404       .  A
C1801      H1804   1.084       .  S
C1802      C1805   1.446       .  S
C1805      N1807   1.158       .  T
C1806      N1808   1.157       .  T
C1809      C1810   1.401       .  A
C1809      C1814   1.405   1_554  A
C1810      C1811   1.392       .  A
C1810      H1815   1.086       .  S
C1811      C1812   1.407       .  A
C1811      C1818   1.443       .  S
C1812      C1813   1.405   1_554  A
C1813      C1814   1.394       .  A
C1813      H1816   1.085       .  S
C1814      C1817   1.445       .  S
C1817      N1819   1.157       .  T
C1818      N1820   1.157       .  T
C1821      C1822   1.399   1_554  A
C1821      C1826   1.408       .  A
C1822      C1823   1.394       .  A
C1822      H1827   1.085       .  S
C1823      C1824   1.409   1_556  A
C1823      C1830   1.444       .  S
C1824      C1825   1.398       .  A
C1825      C1826   1.392       .  A
C1825      H1828   1.085       .  S
C1826      C1829   1.444       .  S
C1829      N1831   1.157       .  T
C1830      N1832   1.157       .  T
C1833      C1834   1.396       .  A
C1833      C1838   1.409   1_554  A
C1834      C1835   1.389       .  A
C1834      H1839   1.085       .  S
C1835      C1836   1.409       .  A
C1835      C1842   1.442       .  S
C1836      C1837   1.403   1_554  A
C1837      C1838   1.398       .  A
C1837      H1840   1.085       .  S
C1838      C1841   1.444       .  S
C1841      N1843   1.157       .  T
C1842      N1844   1.156       .  T
C1845      C1846   1.400       .  A
C1845      C1850   1.404   1_554  A
C1846      C1847   1.390       .  A
C1846      H1851   1.086       .  S
C1847      C1848   1.404       .  A
C1847      C1854   1.443       .  S
C1848      C1849   1.404   1_554  A
C1849      C1850   1.394       .  A
C1849      H1852   1.085       .  S
C1850      C1853   1.444       .  S
C1853      N1855   1.157       .  T
C1854      N1856   1.157       .  T
C1857      C1858   1.403       .  A
C1858      C1859   1.402       .  A
C1858      H1863   1.085       .  S
C1859      C1866   1.441       .  S
C1860      C1861   1.408       .  A
C1861      C1862   1.411       .  A
C1861      H1864   1.084       .  S
C1862      C1865   1.444       .  S
C1865      N1867   1.158       .  T
C1866      N1868   1.156       .  T
C1869      C1870   1.423       .  A
C1870      C1871   1.410       .  A
C1870      H1875   1.079       .  S
C1871      C1878   1.442       .  S
C1872      C1873   1.406       .  A
C1873      C1874   1.404       .  A
C1873      H1876   1.084       .  S
C1874      C1877   1.441       .  S
C1877      N1879   1.156       .  T
C1878      N1880   1.156       .  T
C1881      C1882   1.409   1_455  A
C1882      C1883   1.414       .  A
C1882      H1887   1.085       .  S
C1883      C1884   1.413       .  A
C1883      C1890   1.442       .  S
C1885      C1886   1.395       .  A
C1885      H1888   1.086       .  S
C1886      C1889   1.445       .  S
C1889      N1891   1.157       .  T
C1890      N1892   1.157       .  T
C1893      C1894   1.410       .  A
C1894      C1895   1.412       .  A
C1894      H1899   1.085   1_655  S
C1895      C1896   1.416       .  A
C1895      C1902   1.443       .  S
C1897      C1898   1.409       .  A
C1897      H1900   1.084       .  S
C1898      C1901   1.444       .  S
C1901      N1903   1.157       .  T
C1902      N1904   1.158       .  T
C1905      C1906   1.410       .  A
C1905      C1910   1.413       .  A
C1906      C1907   1.413       .  A
C1906      H1911   1.084       .  S
C1907      C1908   1.414       .  A
C1907      C1914   1.442       .  S
C1908      C1909   1.412       .  A
C1909      C1910   1.410       .  A
C1909      H1912   1.085       .  S
C1910      C1913   1.445       .  S
C1913      N1915   1.157       .  T
C1914      N1916   1.157       .  T
C1917      C1918   1.423       .  A
C1917      C1922   1.419       .  A
C1918      C1919   1.412       .  A
C1918      H1923   1.075       .  S
C1919      C1920   1.406       .  A
C1919      C1926   1.441       .  S
C1920      C1921   1.411       .  A
C1921      C1922   1.409       .  A
C1921      H1924   1.085       .  S
C1922      C1925   1.444       .  S
C1925      N1927   1.157       .  T
C1926      N1928   1.156       .  T
C1929      C1930   1.419       .  A
C1929      C1934   1.417       .  A
C1930      C1931   1.405       .  A
C1930      H1935   1.084       .  S
C1931      C1932   1.405       .  A
C1931      C1938   1.444       .  S
C1932      C1933   1.411       .  A
C1933      C1934   1.413       .  A
C1933      H1936   1.083       .  S
C1934      C1937   1.443       .  S
C1937      N1939   1.158       .  T
C1938      N1940   1.157       .  T
C1941      C1942   1.402       .  A
C1941      C1946   1.405       .  A
C1942      C1943   1.412       .  A
C1942      H1947   1.085       .  S
C1943      C1944   1.426       .  A
C1943      C1950   1.439       .  S
C1944      C1945   1.416       .  A
C1945      C1946   1.398       .  A
C1945      H1948   1.082       .  S
C1946      C1949   1.445       .  S
C1949      N1951   1.157       .  T
C1950      N1952   1.158       .  T
C1953      C1954   1.405       .  A
C1953      C1958   1.408       .  A
C1954      C1955   1.392       .  A
C1954      H1959   1.085       .  S
C1955      C1956   1.401       .  A
C1955      C1962   1.444       .  S
C1956      C1957   1.398       .  A
C1957      C1958   1.389       .  A
C1957      H1960   1.086       .  S
C1958      C1961   1.444       .  S
C1961      N1963   1.157       .  T
C1962      N1964   1.157       .  T
C1965      C1966   1.400       .  A
C1965      C1970   1.406       .  A
C1966      C1967   1.394       .  A
C1966      H1971   1.085       .  S
C1967      C1968   1.407       .  A
C1967      C1974   1.444       .  S
C1968      C1969   1.398       .  A
C1969      C1970   1.390       .  A
C1969      H1972   1.085       .  S
C1970      C1973   1.444       .  S
C1973      N1975   1.157       .  T
C1974      N1976   1.157       .  T
C1977      C1978   1.401       .  A
C1977      C1982   1.410       .  A
C1978      C1979   1.390       .  A
C1978      H1983   1.085       .  S
C1979      C1980   1.407       .  A
C1979      C1986   1.443       .  S
C1980      C1981   1.399       .  A
C1981      C1982   1.393       .  A
C1981      H1984   1.084       .  S
C1982      C1985   1.444       .  S
C1985      N1987   1.157       .  T
C1986      N1988   1.156       .  T
C1989      C1990   1.402       .  A
C1989      C1994   1.410       .  A
C1990      C1991   1.391       .  A
C1990      H1995   1.085       .  S
C1991      C1992   1.407       .  A
C1991      C1998   1.444       .  S
C1992      C1993   1.403       .  A
C1993      C1994   1.396       .  A
C1993      H1996   1.085       .  S
C1994      C1997   1.445       .  S
C1997      N1999   1.158       .  T
C1998      N2000   1.157       .  T
C2001      C2002   1.403       .  A
C2001      C2006   1.434       .  A
C2002      C2003   1.414       .  A
C2002      H2007   1.084       .  S
C2003      C2004   1.429       .  A
C2003      C2010   1.443       .  S
C2004      C2005   1.400       .  A
C2005      C2006   1.395       .  A
C2005      H2008   1.075       .  S
C2006      C2009   1.450       .  S
C2009      N2011   1.158       .  T
C2010      N2012   1.157       .  T
C2013      C2014   1.408       .  A
C2013      C2018   1.419       .  A
C2014      C2015   1.417       .  A
C2014      H2019   1.084       .  S
C2015      C2016   1.417       .  A
C2015      C2022   1.442       .  S
C2016      C2017   1.403       .  A
C2017      C2018   1.404       .  A
C2017      H2020   1.085       .  S
C2018      C2021   1.443       .  S
C2021      N2023   1.156       .  T
C2022      N2024   1.157       .  T
C2025      C2026   1.419       .  A
C2025      C2030   1.420       .  A
C2026      C2027   1.415       .  A
C2026      H2031   1.084       .  S
C2027      C2028   1.412       .  A
C2027      C2034   1.443       .  S
C2028      C2029   1.415       .  A
C2029      C2030   1.416       .  A
C2029      H2032   1.084       .  S
C2030      C2033   1.443       .  S
C2033      N2035   1.157       .  T
C2034      N2036   1.157       .  T
C2037      C2038   1.409       .  A
C2037      C2042   1.413       .  A
C2038      C2039   1.401       .  A
C2038      H2043   1.085       .  S
C2039      C2040   1.409       .  A
C2039      C2046   1.446       .  S
C2040      C2041   1.410       .  A
C2041      C2042   1.415       .  A
C2041      H2044   1.084       .  S
C2042      C2045   1.443       .  S
C2045      N2047   1.157       .  T
C2046      N2048   1.157       .  T
