geometry optimzed in LAMMPS
_audit_creation_date              2020-11-30 
_audit_creation_method            'lammps2cif' 
_symmetry_space_group_name_H-M    'P1' 
_symmetry_Int_Tables_number       1 
_symmetry_cell_setting            triclinic 
loop_ 
_symmetry_equiv_pos_as_xyz 
  x,y,z 
_cell_length_a                    31.43648469 
_cell_length_b                    30.731577550142994 
_cell_length_c                    31.62301800906183 
_cell_angle_alpha                 86.62026224934992 
_cell_angle_beta                  80.11218209199237 
_cell_angle_gamma                 86.7155990647524 
loop_ 
_atom_site_label 
_atom_site_type_symbol 
_atom_site_fract_x 
_atom_site_fract_y 
_atom_site_fract_z 
_atom_site_charge 
O1          O  0.10145224  0.99206471  0.96008019    -0.81100
O2          O  0.90463032  0.01106174  0.99175843    -0.65800
O3          O  0.02145885  0.04005478  0.96472788    -1.12400
C4          C  0.01799853  0.04398654  0.11118597     1.05800
O5          O  0.88584733  0.05211645  0.04864309    -0.79000
O6          O  0.95034479  0.10796927  0.04314885    -0.66600
Ni7        Ni  0.06100124  0.01022798  0.92213213     1.34900
C8          C  0.98806818  0.12159046  0.03155072     0.84500
O9          O  0.95589246  0.02860233  0.91821858    -0.79600
O10         O  0.02386410  0.02593753  0.88103924    -0.89800
C11         C  0.87653488  0.03017425  0.01883913     0.84100
O12         O  0.03868735  0.95341871  0.93177185    -0.68000
O13         O  0.98038043  0.06161855  0.11044142    -0.87300
C14         C  0.00554192  0.93832707  0.95543232     0.84900
C15         C  0.98291922  0.02985532  0.88323797     1.06500
H16         H  0.97007375  0.99048017  0.04706416     0.38300
O17         O  0.97202146  0.02018476  0.03568831    -1.10000
O18         O  0.02176979  0.09599314  0.02753587    -0.66600
Ni19       Ni  0.03120398  0.03352094  0.02205812     1.26300
O20         O  0.97529336  0.96246919  0.97509839    -0.66900
O21         O  0.03994475  0.02532957  0.07946874    -0.79200
C22         C  0.11365938  0.01344250  0.98866812     0.84300
O23         O  0.09037661  0.04426035  0.00623053    -0.66300
Ni24       Ni  0.93576553  0.05567787  0.07601128     1.27400
Ni25       Ni  0.96314398  0.02444467  0.97720612     1.26100
H26         H  0.02159452  0.07060516  0.95556440     0.38800
O27         O  0.96577273  0.94599690  0.49517485    -0.74700
O28         O  0.96610213  0.07156363  0.49133224    -0.74700
O29         O  0.98349923  0.00934764  0.43246256    -0.74700
O30         O  0.94853549  0.00866302  0.55422624    -0.74800
O31         O  0.01785205  0.00384663  0.56190217    -0.74700
O32         O  0.05280069  0.00576879  0.44041523    -0.74700
O33         O  0.03506487  0.06744982  0.49997600    -0.74700
O34         O  0.03478961  0.94140928  0.50292569    -0.74700
Ni35       Ni  0.96355439  0.00892982  0.49296173     1.25400
Ni36       Ni  0.03760233  0.00435227  0.50154324     1.25400
C37         C  0.99996122  0.92266516  0.49988163     0.87500
C38         C  0.00031127  0.09031047  0.49604496     0.87500
C39         C  0.02379364  0.00777723  0.41647296     0.87500
C40         C  0.97768102  0.00759588  0.57802151     0.87600
O41         O  0.54242500  0.00636204  0.00723254    -0.74700
O42         O  0.42259852  0.98654203  0.02897613    -0.74700
O43         O  0.48305587  0.99636550  0.08018491    -0.74700
O44         O  0.48283122  0.99657083  0.95585897    -0.74800
O45         O  0.49832152  0.92522659  0.95684607    -0.74700
O46         O  0.49658781  0.92470428  0.08231048    -0.74700
O47         O  0.43695979  0.91458650  0.02944209    -0.74700
O48         O  0.55758840  0.93477813  0.01011572    -0.74700
Ni49       Ni  0.48210151  0.99883902  0.01802846     1.25400
Ni50       Ni  0.49782863  0.92223445  0.01970285     1.25400
C51         C  0.56989570  0.97397742  0.00585283     0.87500
C52         C  0.41006836  0.94750704  0.03204195     0.87500
C53         C  0.49065015  0.96080898  0.10205848     0.87500
C54         C  0.49140701  0.96125561  0.93521081     0.87600
O55         O  0.00632625  0.46546606  0.02361488    -0.74700
O56         O  0.99891335  0.59023769  0.01907191    -0.74700
O57         O  0.94002742  0.52717077  0.02210351    -0.74700
O58         O  0.06483492  0.52857848  0.02061428    -0.74800
O59         O  0.07676865  0.52988463  0.94936823    -0.74700
O60         O  0.95157824  0.52713841  0.95091517    -0.74700
O61         O  0.00948711  0.59072367  0.94747033    -0.74700
O62         O  0.01850574  0.46605895  0.95208096    -0.74700
Ni63       Ni  0.00211208  0.52779718  0.02381268     1.25400
Ni64       Ni  0.01451286  0.52846368  0.94745724     1.25400
C65         C  0.01406820  0.44519722  0.98867790     0.87500
C66         C  0.00266261  0.61092602  0.98240853     0.87500
C67         C  0.92479193  0.52666778  0.98677148     0.87500
C68         C  0.09175411  0.53010694  0.98493133     0.87600
O69         O  0.93347614  0.51082491  0.47974496    -0.74700
O70         O  0.05517709  0.50664431  0.44057829    -0.74700
O71         O  0.99448686  0.44607687  0.45980856    -0.74700
O72         O  0.99412612  0.57162755  0.46097811    -0.74800
O73         O  0.00377643  0.56652619  0.52910597    -0.74700
O74         O  0.00631633  0.44072951  0.52737150    -0.74700
O75         O  0.06594006  0.50307729  0.50871068    -0.74700
O76         O  0.94391014  0.50396813  0.54792208    -0.74700
Ni77       Ni  0.99388825  0.50904154  0.45791644     1.25400
Ni78       Ni  0.00535983  0.50343178  0.53072942     1.25400
C79         C  0.91870820  0.50731978  0.52002132     0.87500
C80         C  0.08048024  0.50452550  0.46829671     0.87500
C81         C  0.00075635  0.42253550  0.49329161     0.87500
C82         C  0.99956404  0.59002251  0.49494096     0.87600
O83         O  0.61321188  0.43804786  0.47636653    -0.81100
O84         O  0.41788412  0.44544157  0.46172587    -0.65800
O85         O  0.53162770  0.47770501  0.46537115    -1.12400
C86         C  0.49110574  0.47238874  0.61348370     1.05800
O87         O  0.38460411  0.48296993  0.51713763    -0.79000
O88         O  0.44033105  0.53985623  0.53630810    -0.66600
Ni89       Ni  0.58002447  0.44930140  0.43041302     1.34900
C90         C  0.47747755  0.55506265  0.53352045     0.84500
O91         O  0.48167010  0.47020918  0.40293288    -0.79600
O92         O  0.55300265  0.45991603  0.38031583    -0.89800
C93         C  0.38436966  0.46283614  0.48323772     0.84100
O94         O  0.56117390  0.39098794  0.44056409    -0.68000
O95         O  0.45426584  0.48614146  0.60526441    -0.87300
C96         C  0.52424613  0.37540325  0.45226171     0.84900
C97         C  0.51465510  0.46958204  0.37361087     1.06500
H98         H  0.46739407  0.42161480  0.53242302     0.38300
O99         O  0.46943294  0.45222164  0.52381265    -1.10000
O100        O  0.51172830  0.53050343  0.53246209    -0.66600
Ni101      Ni  0.52655492  0.46873268  0.52551036     1.26300
O102        O  0.48951109  0.39908394  0.45863450    -0.66900
O103        O  0.52092915  0.45815858  0.58509966    -0.79200
C104        C  0.61626017  0.46148513  0.50738550     0.84300
O105        O  0.58396529  0.48379915  0.52545267    -0.66300
Ni106      Ni  0.42288730  0.48343394  0.55841055     1.27400
Ni107      Ni  0.47495719  0.46058298  0.46300370     1.26100
H108        H  0.53279990  0.50855827  0.45764827     0.38800
O109        O  0.52046145  0.48061309  0.94164788    -0.74700
O110        O  0.49467363  0.49969729  0.06034191    -0.74700
O111        O  0.44571724  0.49064838  0.99873402    -0.74700
O112        O  0.56964847  0.49041819  0.00280138    -0.74800
O113        O  0.56916045  0.56172531  0.98746216    -0.74700
O114        O  0.44444856  0.56224351  0.98507910    -0.74700
O115        O  0.49479986  0.57177062  0.04663410    -0.74700
O116        O  0.51877698  0.55244344  0.92659758    -0.74700
Ni117      Ni  0.50770126  0.48793372  0.00144170     1.25400
Ni118      Ni  0.50676622  0.56465499  0.98599942     1.25400
C119        C  0.52329006  0.51319649  0.91456270     0.87500
C120        C  0.49036732  0.53856859  0.07308271     0.87500
C121        C  0.42424167  0.52635034  0.99080194     0.87500
C122        C  0.59050324  0.52573635  0.99493315     0.87600
O123        O  0.45568280  0.90816879  0.52850769    -0.74700
O124        O  0.46338289  0.03291303  0.51836016    -0.74700
O125        O  0.45843046  0.96999691  0.46160826    -0.74700
O126        O  0.46047733  0.97130959  0.58577376    -0.74800
O127        O  0.53194598  0.96344113  0.57294975    -0.74700
O128        O  0.52994845  0.96199931  0.44848284    -0.74700
O129        O  0.53514874  0.02481253  0.50536246    -0.74700
O130        O  0.52751504  0.90062409  0.51539993    -0.74700
Ni131      Ni  0.45702195  0.97085062  0.52410202     1.25400
Ni132      Ni  0.53359078  0.96243658  0.51021814     1.25400
C133        C  0.49048112  0.88381125  0.52261817     0.87500
C134        C  0.50058968  0.04947214  0.50970951     0.87500
C135        C  0.49375500  0.96622525  0.43410670     0.87500
C136        C  0.49654696  0.96782314  0.60035234     0.87600
C137        C  0.47650414  0.17264987  0.51257243    -0.11600
C138        C  0.51060802  0.18816241  0.48178166     0.14900
C139        C  0.54221892  0.15796828  0.46180733     0.01800
C140        C  0.53878743  0.11330110  0.47266177    -0.16000
C141        C  0.50409851  0.09751689  0.50275267    -0.10800
C142        C  0.47307838  0.12796128  0.52350802     0.08500
C143        C  0.51380556  0.23606514  0.47329147     0.09600
S144        S  0.58726312  0.17417724  0.42162413    -0.25100
H145        H  0.56284840  0.09054845  0.45636858     0.19800
S146        S  0.42970688  0.11235635  0.56575146    -0.30800
H147        H  0.45283722  0.19572503  0.52893731     0.10200
C148        C  0.48291863  0.26149188  0.45386916     0.03400
C149        C  0.48709591  0.30680727  0.44714237    -0.13100
C150        C  0.52136295  0.32741813  0.45976605    -0.08800
C151        C  0.55135071  0.30184024  0.48057141     0.06800
C152        C  0.54771370  0.25662487  0.48631076    -0.13900
S153        S  0.43884310  0.23611162  0.43656599    -0.30800
H154        H  0.46381853  0.32625496  0.43162086     0.11100
S155        S  0.59300431  0.32504582  0.50355556    -0.27900
H156        H  0.57081218  0.23736029  0.50230068     0.08300
H157        H  0.45465692  0.07976791  0.58478323     0.26700
H158        H  0.41725132  0.27488723  0.42414604     0.21500
H159        H  0.56723717  0.36156440  0.51909239     0.26800
H160        H  0.56596475  0.21107533  0.40494241     0.15700
C161        C  0.51545919  0.76370535  0.50042144    -0.11600
C162        C  0.48346736  0.74367796  0.53034338     0.14900
C163        C  0.45340746  0.76993925  0.55756387     0.01800
C164        C  0.45581984  0.81549862  0.55383352    -0.16000
C165        C  0.48801317  0.83564166  0.52392756    -0.10800
C166        C  0.51764464  0.80914467  0.49639580     0.08500
C167        C  0.48160113  0.69551247  0.53090426     0.09600
S168        S  0.41129026  0.74752224  0.59762210    -0.25100
H169        H  0.43289053  0.83533110  0.57509367     0.19800
S170        S  0.55720170  0.83117807  0.45353305    -0.30800
H171        H  0.53811295  0.74373936  0.47901783     0.10200
C172        C  0.45052360  0.67555452  0.51233080     0.03400
C173        C  0.45020067  0.62981428  0.51331976    -0.13100
C174        C  0.48048222  0.60331764  0.53237453    -0.08800
C175        C  0.51161717  0.62375381  0.55104900     0.06800
C176        C  0.51221031  0.66938950  0.54943404    -0.13900
S177        S  0.41181695  0.70840017  0.48660469    -0.30800
H178        H  0.42633249  0.61457612  0.49893487     0.11100
S179        S  0.54983288  0.59393436  0.57966873    -0.27900
H180        H  0.53606801  0.68477470  0.56378643     0.08300
H181        H  0.52955487  0.86562619  0.44152648     0.26700
H182        H  0.39135077  0.67361123  0.47278761     0.21500
H183        H  0.51923797  0.56575957  0.60250468     0.26800
H184        H  0.43228523  0.70665447  0.60390990     0.15700
C185        C  0.45461583  0.51336461  0.19005288    -0.11600
C186        C  0.48658046  0.53354999  0.20652878     0.14900
C187        C  0.51400233  0.56246995  0.18009808     0.01800
C188        C  0.51146435  0.56754403  0.13647510    -0.16000
C189        C  0.48218204  0.54405249  0.11922427    -0.10800
C190        C  0.45192940  0.51855239  0.14659197     0.08500
C191        C  0.49441638  0.51859735  0.24935242     0.09600
S192        S  0.55521303  0.59046836  0.19937470    -0.25100
H193        H  0.53476858  0.58703786  0.11539840     0.19800
S194        S  0.41116562  0.48966956  0.12739987    -0.30800
H195        H  0.43326105  0.49155758  0.21070670     0.10200
C196        C  0.46896552  0.53488049  0.28637889     0.03400
C197        C  0.47603406  0.51760252  0.32648328    -0.13100
C198        C  0.50762305  0.48383905  0.33012793    -0.08800
C199        C  0.53238860  0.46691918  0.29262725     0.06800
C200        C  0.52588152  0.48495678  0.25260159    -0.13900
S201        S  0.42823948  0.57815678  0.28243071    -0.30800
H202        H  0.45734966  0.53104188  0.35518674     0.11100
S203        S  0.57089827  0.42121987  0.29347310    -0.27900
H204        H  0.54455041  0.47186920  0.22366409     0.08300
H205        H  0.40805216  0.51843809  0.09165348     0.26700
H206        H  0.41129144  0.57860289  0.32658113     0.21500
H207        H  0.54672470  0.39878835  0.32884058     0.26800
H208        H  0.53384295  0.59228581  0.24213224     0.15700
C209        C  0.54552304  0.46474964  0.71222239    -0.11600
C210        C  0.51639423  0.49082732  0.73937743     0.14900
C211        C  0.47888062  0.50975778  0.72593345     0.01800
C212        C  0.47114774  0.50205967  0.68520692    -0.16000
C213        C  0.50016381  0.47594542  0.65731143    -0.10800
C214        C  0.53790727  0.45666882  0.67126469     0.08500
C215        C  0.52306957  0.49322666  0.78351858     0.09600
S216        S  0.43869855  0.54246993  0.75971634    -0.25100
H217        H  0.44228329  0.51724864  0.67520624     0.19800
S218        S  0.57582553  0.42012384  0.63903473    -0.30800
H219        H  0.57352139  0.44960928  0.72393401     0.10200
C220        C  0.50260119  0.46430139  0.81558591     0.03400
C221        C  0.50553544  0.47026892  0.85817773    -0.13100
C222        C  0.52833762  0.50473387  0.86904705    -0.08800
C223        C  0.55129795  0.53188778  0.83643073     0.06800
C224        C  0.54824672  0.52591416  0.79372981    -0.13900
S225        S  0.47118778  0.42109866  0.80234247    -0.30800
H226        H  0.48810264  0.44938154  0.88326890     0.11100
S227        S  0.58490507  0.57417479  0.84711150    -0.27900
H228        H  0.56457232  0.54741874  0.76844682     0.08300
H229        H  0.60674454  0.41497947  0.66646689     0.26700
H230        H  0.45846696  0.40392643  0.84456220     0.21500
H231        H  0.59795937  0.55209951  0.88335956     0.26800
H232        H  0.46645529  0.55832383  0.78496282     0.15700
C233        C  0.19844151  0.52579481  0.45843650    -0.11600
C234        C  0.21707164  0.48771240  0.43926717     0.14900
C235        C  0.19084287  0.45852607  0.42415976     0.01800
C236        C  0.14607086  0.46645893  0.43136575    -0.16000
C237        C  0.12722457  0.50271323  0.45369724    -0.10800
C238        C  0.15372162  0.53364242  0.46578547     0.08500
C239        C  0.26146602  0.47496752  0.44496990     0.09600
S240        S  0.21234671  0.40898819  0.39893702    -0.25100
H241        H  0.12576718  0.44284581  0.42179678     0.19800
S242        S  0.13231530  0.58246247  0.49246000    -0.30800
H243        H  0.21869969  0.54812491  0.47017642     0.10200
C244        C  0.29763407  0.49132853  0.41742224     0.03400
C245        C  0.33862315  0.48381231  0.42894157    -0.13100
C246        C  0.34333722  0.46126215  0.46789934    -0.08800
C247        C  0.30729786  0.44304437  0.49417924     0.06800
C248        C  0.26673152  0.45000863  0.48235984    -0.13900
S249        S  0.29118475  0.52335741  0.36903144    -0.30800
H250        H  0.36658250  0.49781427  0.40908824     0.11100
S251        S  0.31075483  0.41234702  0.54400035    -0.27900
H252        H  0.23868092  0.43752692  0.50343697     0.08300
H253        H  0.09483558  0.58719880  0.47366862     0.26700
H254        H  0.33545181  0.52898503  0.35417949     0.21500
H255        H  0.35376099  0.39650649  0.53209528     0.26800
H256        H  0.25370252  0.42402897  0.38290614     0.15700
C257        C  0.79893773  0.52705860  0.52414699    -0.11600
C258        C  0.78339076  0.48946632  0.54775009     0.14900
C259        C  0.81212994  0.46080977  0.56694055     0.01800
C260        C  0.85614771  0.46898607  0.55984022    -0.16000
C261        C  0.87191525  0.50505795  0.53382520    -0.10800
C262        C  0.84292725  0.53520969  0.51706166     0.08500
C263        C  0.73902216  0.47795014  0.54513172     0.09600
S264        S  0.79500440  0.41226717  0.59872592    -0.25100
H265        H  0.87851590  0.44579097  0.57272793     0.19800
S266        S  0.86198984  0.58351351  0.48575170    -0.30800
H267        H  0.77682097  0.54873040  0.50920425     0.10200
C268        C  0.70299791  0.50552680  0.55995965     0.03400
C269        C  0.66297997  0.49799565  0.54880973    -0.13100
C270        C  0.65815238  0.46355159  0.52274737    -0.08800
C271        C  0.69392328  0.43397063  0.51064041     0.06800
C272        C  0.73390573  0.44187108  0.52175153    -0.13900
S273        S  0.70821624  0.55083166  0.59234185    -0.30800
H274        H  0.63571229  0.52019123  0.55921941     0.11100
S275        S  0.69003056  0.38623463  0.48092092    -0.27900
H276        H  0.76198098  0.42092051  0.51061975     0.08300
H277        H  0.82107054  0.60250099  0.48142249     0.26700
H278        H  0.66571305  0.56859600  0.59429231     0.21500
H279        H  0.73307863  0.37002897  0.47863921     0.26800
H280        H  0.75190249  0.42729930  0.61167063     0.15700
C281        C  0.81050881  0.51400365  0.95611985    -0.11600
C282        C  0.78179093  0.52789967  0.99269218     0.14900
C283        C  0.80085198  0.54043494  0.02753775     0.01800
C284        C  0.84659648  0.53974628  0.02460028    -0.16000
C285        C  0.87557918  0.52611102  0.98784284    -0.10800
C286        C  0.85620800  0.51260879  0.95341979     0.08500
C287        C  0.73272866  0.52805530  0.99355125     0.09600
S288        S  0.76869095  0.55738274  0.07723394    -0.25100
H289        H  0.85965621  0.55005529  0.05173326     0.19800
S290        S  0.88770043  0.49141278  0.90538327    -0.30800
H291        H  0.79711419  0.50359883  0.92921734     0.10200
C292        C  0.70630260  0.56687831  0.99153834     0.03400
C293        C  0.66089950  0.56514324  0.99211174    -0.13100
C294        C  0.63980237  0.52529970  0.99431005    -0.08800
C295        C  0.66694944  0.48644288  0.99550732     0.06800
C296        C  0.71203504  0.48834211  0.99546744    -0.13900
S297        S  0.73072795  0.61906217  0.98677437    -0.30800
H298        H  0.64170472  0.59537835  0.99062745     0.11100
S299        S  0.64686347  0.43276904  0.99568438    -0.27900
H300        H  0.73143759  0.45812416  0.99651236     0.08300
H301        H  0.91425173  0.46349519  0.92773708     0.26700
H302        H  0.69221722  0.64503924  0.98845597     0.21500
H303        H  0.62719014  0.44279012  0.95930308     0.26800
H304        H  0.73234839  0.53366827  0.07486318     0.15700
C305        C  0.20388625  0.54534335  0.01913804    -0.11600
C306        C  0.23406589  0.53155571  0.98354518     0.14900
C307        C  0.21665786  0.51853467  0.94780846     0.01800
C308        C  0.17110318  0.51841803  0.94901773    -0.16000
C309        C  0.14073699  0.53190001  0.98486226    -0.10800
C310        C  0.15847281  0.54648124  0.01991065     0.08500
C311        C  0.28286943  0.53063920  0.98498714     0.09600
S312        S  0.25096523  0.50242466  0.89899272    -0.25100
H313        H  0.15932376  0.50763527  0.92133071     0.19800
S314        S  0.12516960  0.56925596  0.06620955    -0.30800
H315        H  0.21589454  0.55603769  0.04674136     0.10200
C316        C  0.30549947  0.56895811  0.98695481     0.03400
C317        C  0.35070962  0.56655284  0.98855824    -0.13100
C318        C  0.37549669  0.52654200  0.98835834    -0.08800
C319        C  0.35247698  0.48819922  0.98591632     0.06800
C320        C  0.30735517  0.49070495  0.98464113    -0.13900
S321        S  0.27696775  0.62159147  0.98608483    -0.30800
H322        H  0.36686336  0.59641877  0.99010676     0.11100
S323        S  0.37861029  0.43456255  0.98306165    -0.27900
H324        H  0.29112258  0.46084281  0.98299366     0.08300
H325        H  0.09905919  0.59544871  0.04188378     0.26700
H326        H  0.31224287  0.64681510  0.98884888     0.21500
H327        H  0.41149034  0.44706905  0.94916535     0.26800
H328        H  0.28493795  0.52926818  0.90207708     0.15700
C329        C  0.50509971  0.99919765  0.81266687    -0.11600
C330        C  0.49369343  0.96269526  0.79255453     0.14900
C331        C  0.48330169  0.92497488  0.82020803     0.01800
C332        C  0.48273282  0.92538853  0.86550922    -0.16000
C333        C  0.49331947  0.96224026  0.88578506    -0.10800
C334        C  0.50554999  0.99925740  0.85774659     0.08500
C335        C  0.49375994  0.96488489  0.74330512     0.09600
S336        S  0.47168118  0.87422849  0.79972628    -0.25100
H337        H  0.47395508  0.89617139  0.88518867     0.19800
S338        S  0.52452178  0.04735901  0.87697116    -0.30800
H339        H  0.51427676  0.02823340  0.79285386     0.10200
C340        C  0.45606318  0.96058442  0.72488694     0.03400
C341        C  0.45801273  0.96174923  0.67923756    -0.13100
C342        C  0.49668933  0.96825132  0.64954394    -0.08800
C343        C  0.53393590  0.97492208  0.66832184     0.06800
C344        C  0.53215999  0.97259408  0.71386246    -0.13900
S345        S  0.40441765  0.95587659  0.75959482    -0.30800
H346        H  0.42871294  0.95769200  0.66658093     0.11100
S347        S  0.58476827  0.98878582  0.63618358    -0.27900
H348        H  0.56137070  0.97735815  0.72652183     0.08300
H349        H  0.54970897  0.02410173  0.90429900     0.26700
H350        H  0.38015919  0.94934342  0.72724894     0.21500
H351        H  0.56596300  0.02036158  0.61004132     0.26800
H352        H  0.49656842  0.88059945  0.75867321     0.15700
C353        C  0.50363801  0.99851802  0.21578351    -0.11600
C354        C  0.49212394  0.96191023  0.24372554     0.14900
C355        C  0.48108504  0.92453941  0.22402853     0.01800
C356        C  0.48159852  0.92472630  0.17872368    -0.16000
C357        C  0.49254464  0.96157900  0.15070568    -0.10800
C358        C  0.50482325  0.99849869  0.17044424     0.08500
C359        C  0.49317426  0.96326134  0.29242832     0.09600
S360        S  0.46583525  0.87508468  0.25505145    -0.24300
H361        H  0.47249661  0.89567852  0.16535066     0.19800
S362        S  0.52552977  0.04594554  0.13920469    -0.30800
H363        H  0.51319142  0.02729444  0.22928446     0.10200
C364        C  0.52716783  0.94309502  0.31207796     0.03400
C365        C  0.52678883  0.94494242  0.35729972    -0.13100
C366        C  0.49292643  0.96640959  0.38515953    -0.08800
C367        C  0.45921401  0.98722622  0.36500544     0.06800
C368        C  0.45966408  0.98525501  0.31992788    -0.13900
S369        S  0.57186546  0.91528662  0.27916278    -0.30800
H370        H  0.55315681  0.92903279  0.37113606     0.11100
S371        S  0.41513236  0.01874147  0.39457692    -0.27900
H372        H  0.43340730  0.00146977  0.30605745     0.08300
H373        H  0.55067374  0.02195691  0.10645196     0.26700
H374        H  0.59298494  0.89877877  0.31291156     0.21500
H375        H  0.44149999  0.03972420  0.41801891     0.26800
H376        H  0.44817944  0.89501454  0.29343586     0.15700
C377        C  0.00978690  0.71192284  0.45962771    -0.11600
C378        C  0.00302880  0.73159920  0.49929359     0.14900
C379        C  0.99552081  0.70457835  0.53731516     0.01800
C380        C  0.99441813  0.65907201  0.53482201    -0.16000
C381        C  0.00121377  0.63895867  0.49508815    -0.10800
C382        C  0.00959127  0.66637717  0.45701164     0.08500
C383        C  0.00274728  0.78032698  0.49984510     0.09600
S384        S  0.98649869  0.72614997  0.59011523    -0.25100
H385        H  0.98807859  0.63921282  0.56446984     0.19800
S386        S  0.02178033  0.64584224  0.40388271    -0.30800
H387        H  0.01578703  0.73232150  0.43027909     0.10200
C388        C  0.04124416  0.80288421  0.49516302     0.03400
C389        C  0.03937334  0.84888079  0.49567538    -0.13100
C390        C  0.99963812  0.87347494  0.50117985    -0.08800
C391        C  0.96102602  0.85013463  0.50693015     0.06800
C392        C  0.96314547  0.80438954  0.50553486    -0.13900
S393        S  0.09281779  0.77284834  0.48928373    -0.30800
H394        H  0.06921656  0.86573332  0.49143407     0.11100
S395        S  0.90768179  0.87595457  0.51798769    -0.27900
H396        H  0.93343449  0.78720301  0.50971582     0.08300
H397        H  0.05281901  0.61420206  0.41464672     0.26700
H398        H  0.11839373  0.80900485  0.48888323     0.21500
H399        H  0.91755086  0.90066754  0.55082447     0.26800
H400        H  0.01148153  0.76288641  0.57917633     0.15700
C401        C  0.02100708  0.20684180  0.52213380    -0.11600
C402        C  0.99573364  0.23212012  0.49634795     0.14900
C403        C  0.97161209  0.21022107  0.47091813     0.01800
C404        C  0.97395538  0.16434229  0.47126616    -0.16000
C405        C  0.99923852  0.13901636  0.49708587    -0.10800
C406        C  0.02219796  0.16098546  0.52359235     0.08500
C407        C  0.99623924  0.28097612  0.49588128     0.09600
S408        S  0.93666079  0.23878571  0.43777865    -0.25100
H409        H  0.95568614  0.14825122  0.45114634     0.19800
S410        S  0.05158544  0.13264039  0.56190349    -0.30800
H411        H  0.03948344  0.22305837  0.54197138     0.10200
C412        C  0.98184036  0.30439724  0.53325398     0.03400
C413        C  0.98450252  0.35015101  0.53158395    -0.13100
C414        C  0.00067416  0.37370202  0.49317646    -0.08800
C415        C  0.01505923  0.34995558  0.45578118     0.06800
C416        C  0.01251916  0.30433387  0.45755896    -0.13900
S417        S  0.95820404  0.27631616  0.58279401    -0.30800
H418        H  0.97298881  0.36784168  0.56025725     0.11100
S419        S  0.03891034  0.37532749  0.40511695    -0.27900
H420        H  0.02415712  0.28668760  0.42883086     0.08300
H421        H  0.02038640  0.10137853  0.57525533     0.26700
H422        H  0.94784801  0.31349724  0.60711856     0.21500
H423        H  0.06233362  0.40446200  0.42362099     0.26800
H424        H  0.92528893  0.27423944  0.46426477     0.15700
C425        C  0.97400670  0.72813708  0.95069107    -0.11600
C426        C  0.00227025  0.75028071  0.97066250     0.14900
C427        C  0.02922588  0.72642572  0.99610280     0.01800
C428        C  0.02721353  0.68104091  0.00108503    -0.16000
C429        C  0.99976799  0.65883195  0.98016439    -0.10800
C430        C  0.97236316  0.68273322  0.95528129     0.08500
C431        C  0.00167754  0.79836799  0.96575995     0.09600
S432        S  0.06766346  0.75177795  0.02192127    -0.25100
H433        H  0.04848700  0.66276044  0.01999441     0.19800
S434        S  0.93370963  0.65731421  0.92983298    -0.30800
H435        H  0.95276168  0.74646336  0.93178802     0.10200
C436        C  0.01940796  0.81997423  0.92676330     0.03400
C437        C  0.01945074  0.86567082  0.92410401    -0.13100
C438        C  0.00246340  0.89027938  0.95979683    -0.08800
C439        C  0.98465449  0.86816764  0.99882516     0.06800
C440        C  0.98393779  0.82267036  0.00115276    -0.13900
S441        S  0.04337759  0.78928945  0.88091156    -0.30800
H442        H  0.03302884  0.88234572  0.89412834     0.11100
S443        S  0.96563059  0.89551628  0.04771952    -0.27900
H444        H  0.97067782  0.80589554  0.03123785     0.08300
H445        H  0.92469312  0.62382056  0.96187457     0.26700
H446        H  0.05849368  0.82515931  0.85393593     0.21500
H447        H  0.00306243  0.91946940  0.04374305     0.26800
H448        H  0.07639173  0.78615091  0.99082033     0.15700
C449        C  0.97215869  0.24490895  0.03616516    -0.11600
C450        C  0.00698974  0.25847199  0.00542544     0.14900
C451        C  0.03570044  0.22717099  0.98348192     0.01800
C452        C  0.02834556  0.18285050  0.99214605    -0.16000
C453        C  0.99334717  0.16896288  0.02291969    -0.10800
C454        C  0.96512579  0.20057137  0.04557662     0.08500
C455        C  0.01241551  0.30571056  0.99788606     0.09600
S456        S  0.08199845  0.24156847  0.94404507    -0.25100
H457        H  0.05031103  0.15898386  0.97480570     0.19800
S458        S  0.92149906  0.18539078  0.08816215    -0.30800
H459        H  0.95068312  0.26939316  0.05306927     0.10200
C460        C  0.99636123  0.32951547  0.96413508     0.03400
C461        C  0.99883963  0.37504467  0.96073506    -0.13100
C462        C  0.01688198  0.39704515  0.99064923    -0.08800
C463        C  0.03475780  0.37257946  0.02321213     0.06800
C464        C  0.03161779  0.32735516  0.02690631    -0.13900
S465        S  0.97109861  0.30203077  0.92670327    -0.30800
H466        H  0.98523794  0.39370727  0.93571246     0.11100
S467        S  0.06301057  0.39679705  0.06026334    -0.27900
H468        H  0.04435316  0.30876158  0.05255198     0.08300
H469        H  0.90820157  0.22772291  0.10117541     0.26700
H470        H  0.96083323  0.33955248  0.90206479     0.21500
H471        H  0.08224952  0.42848904  0.03015884     0.26800
H472        H  0.08929790  0.28092661  0.96146762     0.15700
C473        C  0.77388872  0.01965556  0.97459103    -0.11600
C474        C  0.74555640  0.00832924  0.01219886     0.14900
C475        C  0.75952422  0.00683108  0.05233684     0.01800
C476        C  0.80212420  0.01611452  0.05381295    -0.16000
C477        C  0.83098098  0.02621976  0.01598531    -0.10800
C478        C  0.81626649  0.02935726  0.97609486     0.08500
C479        C  0.70103452  0.00041974  0.00843519     0.09600
S480        S  0.72487957  0.99324890  0.10253941    -0.25100
H481        H  0.81324168  0.01391651  0.08451035     0.19800
S482        S  0.84900964  0.04767458  0.92643286    -0.30800
H483        H  0.76253000  0.02191897  0.94400327     0.10200
C484        C  0.66830416  0.03329739  0.01653321     0.03400
C485        C  0.62604647  0.02410870  0.01366215    -0.13100
C486        C  0.61598152  0.98281430  0.00218323    -0.08800
C487        C  0.64976995  0.95086471  0.99128730     0.06800
C488        C  0.69184420  0.95986548  0.99523037    -0.13900
S489        S  0.68034394  0.08676715  0.03088011    -0.30800
H490        H  0.60060787  0.04896363  0.02174343     0.11100
S491        S  0.64204898  0.89879998  0.97102224    -0.27900
H492        H  0.71772486  0.93523709  0.98773522     0.08300
H493        H  0.87266355  0.07640328  0.94530668     0.26700
H494        H  0.63853993  0.10613414  0.03203090     0.21500
H495        H  0.61283501  0.91586923  0.94446359     0.26800
H496        H  0.69690640  0.96745561  0.08576365     0.15700
C497        C  0.30145796  0.93510915  0.00300991    -0.11600
C498        C  0.27531301  0.95643196  0.03670507     0.14900
C499        C  0.29268978  0.96692801  0.07283263     0.01800
C500        C  0.33700505  0.95986973  0.07241074    -0.16000
C501        C  0.36376201  0.94155446  0.03713725    -0.10800
C502        C  0.34553881  0.92726820  0.00296927     0.08500
C503        C  0.23223006  0.97277585  0.02968913     0.09600
S504        S  0.26077901  0.99256754  0.11844663    -0.25100
H505        H  0.35111755  0.97096905  0.09859411     0.19800
S506        S  0.37772505  0.90502308  0.95569909    -0.30800
H507        H  0.28794762  0.92713706  0.97526110     0.10200
C508        C  0.22506408  0.01647148  0.01530707     0.03400
C509        C  0.18533805  0.02946161  0.00320850    -0.13100
C510        C  0.15329356  0.99936720  0.00473489    -0.08800
C511        C  0.15981209  0.95621395  0.02112309     0.06800
C512        C  0.19954822  0.94317217  0.03283244    -0.13900
S513        S  0.26732700  0.05491281  0.00989608    -0.30800
H514        H  0.17969611  0.06260475  0.99105983     0.11100
S515        S  0.11860620  0.91660934  0.02831805    -0.27900
H516        H  0.20525036  0.90969882  0.04409888     0.08300
H517        H  0.40226692  0.87567544  0.97869980     0.26700
H518        H  0.24352473  0.09106761  0.99503981     0.21500
H519        H  0.08348962  0.94678042  0.03855187     0.26800
H520        H  0.22090360  0.97709240  0.11313028     0.15700
C521        C  0.92859112  0.00779861  0.78962520    -0.11600
C522        C  0.94989584  0.03664146  0.75812785     0.14900
C523        C  0.97649197  0.06777323  0.76979528     0.01800
C524        C  0.98460053  0.06654169  0.81183799    -0.16000
C525        C  0.96650291  0.03504151  0.84249004    -0.10800
C526        C  0.93716973  0.00612782  0.83160543     0.08500
C527        C  0.95335333  0.02594658  0.71296663     0.09600
S528        S  0.00492043  0.10637969  0.73147220    -0.25100
H529        H  0.00691275  0.08893438  0.82018319     0.19800
S530        S  0.91426356  0.96274155  0.86779709    -0.30800
H531        H  0.90875779  0.98346063  0.78039058     0.10200
C532        C  0.98656487  0.99649628  0.69494210     0.03400
C533        C  0.99219977  0.98953519  0.65110511    -0.13100
C534        C  0.96578763  0.01196231  0.62470110    -0.08800
C535        C  0.93177625  0.04078675  0.64318406     0.06800
C536        C  0.92526953  0.04662394  0.68740607    -0.13900
S537        S  0.02290912  0.96900565  0.72754557    -0.30800
H538        H  0.01817231  0.96745514  0.63702469     0.11100
S539        S  0.89848794  0.07422625  0.61185127    -0.27900
H540        H  0.89995175  0.06942697  0.70151307     0.08300
H541        H  0.95226743  0.95123427  0.88447190     0.26700
H542        H  0.04690340  0.94380779  0.69516912     0.21500
H543        H  0.93346478  0.08764871  0.58073641     0.26800
H544        H  0.97406003  0.11052254  0.70406150     0.15700
C545        C  0.03764322  0.07240862  0.22046869    -0.11600
C546        C  0.05725439  0.03298749  0.23364638     0.14900
C547        C  0.07084532  0.00072342  0.20370740     0.01800
C548        C  0.06004195  0.00639305  0.16271112    -0.16000
C549        C  0.03641344  0.04399671  0.15088960    -0.10800
C550        C  0.02786924  0.07861394  0.17906314     0.08500
C551        C  0.05428667  0.02293560  0.28006205     0.09600
S552        S  0.09928634  0.95050003  0.21702871    -0.25100
H553        H  0.06799400  0.98014066  0.14083420     0.19800
S554        S  0.00406628  0.13093784  0.16440133    -0.30800
H555        H  0.02783415  0.09756734  0.24327477     0.10200
C556        C  0.07698395  0.04565527  0.30574687     0.03400
C557        C  0.06821376  0.03834295  0.35050919    -0.13100
C558        C  0.03677047  0.00925884  0.36964710    -0.08800
C559        C  0.01580307  0.98498938  0.34353280     0.06800
C560        C  0.02450661  0.99237809  0.29912903    -0.13900
S561        S  0.11632080  0.08428457  0.28154163    -0.30800
H562        H  0.08438666  0.05668869  0.37073962     0.11100
S563        S  0.97766268  0.94422931  0.36483475    -0.27900
H564        H  0.00716698  0.97484627  0.27921313     0.08300
H565        H  0.02281427  0.13050431  0.12066829     0.26700
H566        H  0.12736275  0.09707211  0.32009539     0.21500
H567        H  0.99817767  0.93025816  0.39979307     0.26800
H568        H  0.11705831  0.96687334  0.25042808     0.15700
loop_ 
_geom_bond_atom_site_label_1 
_geom_bond_atom_site_label_2 
_geom_bond_distance 
_geom_bond_site_symmetry_2 
_ccdc_geom_bond_type 
O1           Ni7   1.932   1_565  S
O1           C22   1.271   1_565  A
O2          Ni25   1.881       .  S
O2           C11   1.264   1_556  A
O3           Ni7   1.908       .  S
O3          Ni25   1.891   1_455  S
O3          Ni19   1.887   1_556  S
O3           H26   0.966       .  S
C4           O21   1.263       .  A
C4           O13   1.276   1_455  A
C4          C549   1.470       .  S
O5          Ni24   1.929       .  S
O5           C11   1.273       .  A
O6          Ni24   1.896       .  S
O6            C8   1.267       .  A
Ni7          O10   1.915       .  S
Ni7          O12   1.907   1_545  S
C8           O18   1.276   1_655  A
C8          C453   1.479       .  S
O9          Ni25   1.914       .  S
O9           C15   1.274       .  A
O10          C15   1.276   1_455  A
C11         C477   1.463       .  S
O12          C14   1.268       .  A
O13         Ni24   1.940       .  S
C14          O20   1.270   1_455  A
C14         C438   1.482       .  S
C15         C525   1.465       .  S
H16          O17   0.963   1_565  S
O17         Ni25   1.913   1_554  S
O17         Ni19   1.899   1_655  S
O17         Ni24   1.907       .  S
O18         Ni19   1.939       .  S
Ni19         O23   1.884       .  S
Ni19         O21   1.883       .  S
O20         Ni25   1.924   1_565  S
C22          O23   1.259   1_556  A
C22         C510   1.459   1_546  S
O27         Ni35   1.929   1_565  S
O27          C37   1.283       .  A
O28         Ni35   1.928       .  S
O28          C38   1.283   1_655  A
O29         Ni35   1.908       .  S
O29          C39   1.280   1_655  A
O30         Ni35   1.913       .  S
O30          C40   1.280       .  A
O31         Ni36   1.903       .  S
O31          C40   1.279   1_455  A
O32         Ni36   1.908       .  S
O32          C39   1.278       .  A
O33         Ni36   1.934       .  S
O33          C38   1.285       .  A
O34         Ni36   1.939   1_565  S
O34          C37   1.286   1_455  A
Ni35        Ni36   2.385   1_655  S
C37         C390   1.510       .  S
C38         C405   1.497   1_455  S
C39         C558   1.466       .  S
C40         C534   1.471       .  S
O41         Ni49   1.893   1_545  S
O41          C51   1.277   1_545  A
O42         Ni49   1.899       .  S
O42          C52   1.277       .  A
O43         Ni49   1.968       .  S
O43          C53   1.291       .  A
O44         Ni49   1.967   1_556  S
O44          C54   1.291       .  A
O45         Ni50   1.982   1_556  S
O45          C54   1.294       .  A
O46         Ni50   1.979       .  S
O46          C53   1.294       .  A
O47         Ni50   1.911       .  S
O47          C52   1.278       .  A
O48         Ni50   1.909       .  S
O48          C51   1.279       .  A
Ni49        Ni50   2.377       .  S
C51         C486   1.473       .  S
C52         C501   1.458       .  S
C53         C357   1.551       .  S
C54         C333   1.552       .  S
O55         Ni63   1.913       .  S
O55          C65   1.280   1_554  A
O56         Ni63   1.914   1_655  S
O56          C66   1.279   1_654  A
O57         Ni63   1.963   1_655  S
O57          C67   1.290   1_554  A
O58         Ni63   1.958       .  S
O58          C68   1.289   1_554  A
O59         Ni64   1.971       .  S
O59          C68   1.292       .  A
O60         Ni64   1.965   1_655  S
O60          C67   1.291       .  A
O61         Ni64   1.911       .  S
O61          C66   1.279       .  A
O62         Ni64   1.913       .  S
O62          C65   1.280       .  A
Ni63        Ni64   2.378   1_554  S
C65         C462   1.476       .  S
C66         C429   1.468   1_455  S
C67         C285   1.543       .  S
C68         C309   1.544       .  S
O69         Ni77   1.905       .  S
O69          C79   1.279       .  A
O70         Ni77   1.909   1_455  S
O70          C80   1.278       .  A
O71         Ni77   1.932       .  S
O71          C81   1.284   1_655  A
O72         Ni77   1.932       .  S
O72          C82   1.284       .  A
O73         Ni78   1.935       .  S
O73          C82   1.285   1_455  A
O74         Ni78   1.934       .  S
O74          C81   1.285       .  A
O75         Ni78   1.912       .  S
O75          C80   1.280       .  A
O76         Ni78   1.914   1_655  S
O76          C79   1.279       .  A
Ni77        Ni78   2.386   1_655  S
C79         C261   1.465       .  S
C80         C237   1.462       .  S
C81         C414   1.501       .  S
C82         C381   1.508   1_655  S
O83         Ni89   1.934       .  S
O83         C104   1.270       .  A
O84        Ni107   1.887       .  S
O84          C93   1.261       .  A
O85         Ni89   1.919       .  S
O85        Ni107   1.901       .  S
O85        Ni101   1.886       .  S
O85         H108   0.966       .  S
C86         O103   1.259       .  A
C86          O95   1.273       .  A
C86         C213   1.473       .  S
O87        Ni106   1.922       .  S
O87          C93   1.270       .  A
O88        Ni106   1.905       .  S
O88          C90   1.270       .  A
Ni89         O92   1.925       .  S
Ni89         O94   1.912       .  S
C90         O100   1.276       .  A
C90         C174   1.489       .  S
O91        Ni107   1.883       .  S
O91          C97   1.267       .  A
O92          C97   1.275       .  A
C93         C246   1.458       .  S
O94          C96   1.269       .  A
O95        Ni106   1.924       .  S
C96         O102   1.270       .  A
C96         C150   1.485       .  S
C97         C198   1.468       .  S
H98          O99   0.966       .  S
O99        Ni107   1.904       .  S
O99        Ni101   1.904       .  S
O99        Ni106   1.916       .  S
O100       Ni101   1.945       .  S
Ni101       O105   1.888       .  S
Ni101       O103   1.873       .  S
O102       Ni107   1.926       .  S
C104        O105   1.263       .  A
C104        C270   1.486       .  S
O109       Ni117   1.888   1_556  S
O109        C119   1.276       .  A
O110       Ni117   1.889       .  S
O110        C120   1.276       .  A
O111       Ni117   1.962   1_556  S
O111        C121   1.290       .  A
O112       Ni117   1.961       .  S
O112        C122   1.290   1_554  A
O113       Ni118   1.967       .  S
O113        C122   1.291       .  A
O114       Ni118   1.970       .  S
O114        C121   1.292       .  A
O115       Ni118   1.913   1_554  S
O115        C120   1.279       .  A
O116       Ni118   1.907       .  S
O116        C119   1.279       .  A
Ni117      Ni118   2.379   1_554  S
C119        C222   1.458       .  S
C120        C189   1.456       .  S
C121        C318   1.547       .  S
C122        C294   1.546       .  S
O123       Ni131   1.925       .  S
O123        C133   1.282       .  A
O124       Ni131   1.924   1_545  S
O124        C134   1.282       .  A
O125       Ni131   1.971       .  S
O125        C135   1.292       .  A
O126       Ni131   1.973       .  S
O126        C136   1.292       .  A
O127       Ni132   1.978       .  S
O127        C136   1.293       .  A
O128       Ni132   1.976       .  S
O128        C135   1.293       .  A
O129       Ni132   1.917   1_545  S
O129        C134   1.281       .  A
O130       Ni132   1.915       .  S
O130        C133   1.280       .  A
Ni131      Ni132   2.373       .  S
C133        C165   1.485       .  S
C134        C141   1.487       .  S
C135        C366   1.552       .  S
C136        C342   1.557       .  S
C137        C138   1.404       .  A
C137        C142   1.402       .  A
C137        H147   1.084       .  S
C138        C143   1.487       .  S
C138        C139   1.413       .  A
C139        C140   1.401       .  A
C139        S144   1.804       .  S
C140        C141   1.407       .  A
C140        H145   1.084       .  S
C141        C142   1.416       .  A
C142        S146   1.802       .  S
C143        C148   1.411       .  A
C143        C152   1.401       .  A
S144        H160   1.406       .  S
S146        H157   1.408       .  S
C148        C149   1.407       .  A
C148        S153   1.806       .  S
C149        C150   1.406       .  A
C149        H154   1.083       .  S
C150        C151   1.417       .  A
C151        C152   1.399       .  A
C151        S155   1.802       .  S
C152        H156   1.084       .  S
S153        H158   1.407       .  S
S155        H159   1.408       .  S
C161        C162   1.400       .  A
C161        C166   1.399       .  A
C161        H171   1.084       .  S
C162        C167   1.484       .  S
C162        C163   1.414       .  A
C163        C164   1.403       .  A
C163        S168   1.805       .  S
C164        C165   1.406       .  A
C164        H169   1.084       .  S
C165        C166   1.417       .  A
C166        S170   1.803       .  S
C167        C172   1.408       .  A
C167        C176   1.401       .  A
S168        H184   1.405       .  S
S170        H181   1.407       .  S
C172        C173   1.405       .  A
C172        S177   1.807       .  S
C173        C174   1.408       .  A
C173        H178   1.083       .  S
C174        C175   1.419       .  A
C175        C176   1.401       .  A
C175        S179   1.803       .  S
C176        H180   1.084       .  S
S177        H182   1.407       .  S
S179        H183   1.407       .  S
C185        C186   1.398       .  A
C185        C190   1.391       .  A
C185        H195   1.084       .  S
C186        C191   1.461       .  S
C186        C187   1.409       .  A
C187        C188   1.395       .  A
C187        S192   1.803       .  S
C188        C189   1.400       .  A
C188        H193   1.084       .  S
C189        C190   1.411       .  A
C190        S194   1.805       .  S
C191        C196   1.401       .  A
C191        C200   1.401       .  A
S192        H208   1.405       .  S
S194        H205   1.407       .  S
C196        C197   1.394       .  A
C196        S201   1.807       .  S
C197        C198   1.408       .  A
C197        H202   1.083       .  S
C198        C199   1.411       .  A
C199        C200   1.394       .  A
C199        S203   1.803       .  S
C200        H204   1.084       .  S
S201        H206   1.407       .  S
S203        H207   1.407       .  S
C209        C210   1.395       .  A
C209        C214   1.396       .  A
C209        H219   1.083       .  S
C210        C215   1.453       .  S
C210        C211   1.405       .  A
C211        C212   1.387       .  A
C211        S216   1.807       .  S
C212        C213   1.406       .  A
C212        H217   1.083       .  S
C213        C214   1.422       .  A
C214        S218   1.813       .  S
C215        C220   1.403       .  A
C215        C224   1.399       .  A
S216        H232   1.404       .  S
S218        H229   1.406       .  S
C220        C221   1.389       .  A
C220        S225   1.809       .  S
C221        C222   1.403       .  A
C221        H226   1.083       .  S
C222        C223   1.412       .  A
C223        C224   1.394       .  A
C223        S227   1.803       .  S
C224        H228   1.084       .  S
S225        H230   1.407       .  S
S227        H231   1.407       .  S
C233        C234   1.401       .  A
C233        C238   1.394       .  A
C233        H243   1.084       .  S
C234        C239   1.466       .  S
C234        C235   1.408       .  A
C235        C236   1.396       .  A
C235        S240   1.803       .  S
C236        C237   1.402       .  A
C236        H241   1.082       .  S
C237        C238   1.409       .  A
C238        S242   1.804       .  S
C239        C244   1.406       .  A
C239        C248   1.400       .  A
S240        H256   1.406       .  S
S242        H253   1.405       .  S
C244        C245   1.401       .  A
C244        S249   1.805       .  S
C245        C246   1.404       .  A
C245        H250   1.083       .  S
C246        C247   1.408       .  A
C247        C248   1.391       .  A
C247        S251   1.804       .  S
C248        H252   1.084       .  S
S249        H254   1.407       .  S
S251        H255   1.406       .  S
C257        C258   1.403       .  A
C257        C262   1.397       .  A
C257        H267   1.083       .  S
C258        C263   1.476       .  S
C258        C259   1.412       .  A
C259        C260   1.398       .  A
C259        S264   1.804       .  S
C260        C261   1.402       .  A
C260        H265   1.084       .  S
C261        C262   1.408       .  A
C262        S266   1.808       .  S
C263        C268   1.405       .  A
C263        C272   1.400       .  A
S264        H280   1.406       .  S
S266        H277   1.407       .  S
C268        C269   1.399       .  A
C268        S273   1.807       .  S
C269        C270   1.410       .  A
C269        H274   1.082       .  S
C270        C271   1.419       .  A
C271        C272   1.400       .  A
C271        S275   1.809       .  S
C272        H276   1.083       .  S
S273        H278   1.407       .  S
S275        H279   1.406       .  S
C281        C282   1.411       .  A
C281        C286   1.423       .  A
C281        H291   1.083       .  S
C282        C287   1.538       .  S
C282        C283   1.423   1_556  A
C283        C284   1.424       .  A
C283        S288   1.804       .  S
C284        C285   1.417   1_554  A
C284        H289   1.083       .  S
C285        C286   1.428       .  A
C286        S290   1.800       .  S
C287        C292   1.419       .  A
C287        C296   1.409       .  A
S288        H304   1.405       .  S
S290        H301   1.408       .  S
C292        C293   1.428       .  A
C292        S297   1.805       .  S
C293        C294   1.418       .  A
C293        H298   1.082       .  S
C294        C295   1.430       .  A
C295        C296   1.422       .  A
C295        S299   1.799       .  S
C296        H300   1.083       .  S
S297        H302   1.406       .  S
S299        H303   1.408       .  S
C305        C306   1.411   1_554  A
C305        C310   1.422       .  A
C305        H315   1.083       .  S
C306        C311   1.541       .  S
C306        C307   1.424       .  A
C307        C308   1.426       .  A
C307        S312   1.802       .  S
C308        C309   1.416       .  A
C308        H313   1.083       .  S
C309        C310   1.428   1_556  A
C310        S314   1.800       .  S
C311        C316   1.420       .  A
C311        C320   1.410       .  A
S312        H328   1.406       .  S
S314        H325   1.408       .  S
C316        C317   1.428       .  A
C316        S321   1.805       .  S
C317        C318   1.417       .  A
C317        H322   1.082       .  S
C318        C319   1.430       .  A
C319        C320   1.424       .  A
C319        S323   1.799       .  S
C320        H324   1.083       .  S
S321        H326   1.406       .  S
S323        H327   1.408       .  S
C329        C330   1.414       .  A
C329        C334   1.428       .  A
C329        H339   1.083   1_565  S
C330        C335   1.555       .  S
C330        C331   1.429       .  A
C331        C332   1.430       .  A
C331        S336   1.803       .  S
C332        C333   1.417       .  A
C332        H337   1.083       .  S
C333        C334   1.429       .  A
C334        S338   1.801   1_565  S
C335        C340   1.423       .  A
C335        C344   1.415       .  A
S336        H352   1.405       .  S
S338        H349   1.408       .  S
C340        C341   1.433       .  A
C340        S345   1.805       .  S
C341        C342   1.419       .  A
C341        H346   1.082       .  S
C342        C343   1.430       .  A
C343        C344   1.429       .  A
C343        S347   1.799       .  S
C344        H348   1.083       .  S
S345        H350   1.406       .  S
S347        H351   1.408   1_565  S
C353        C354   1.413       .  A
C353        C358   1.428       .  A
C353        H363   1.083   1_565  S
C354        C359   1.549       .  S
C354        C355   1.425       .  A
C355        C356   1.430       .  A
C355        S360   1.802       .  S
C356        C357   1.417       .  A
C356        H361   1.083       .  S
C357        C358   1.429       .  A
C358        S362   1.801   1_565  S
C359        C364   1.421       .  A
C359        C368   1.413       .  A
S360        H376   1.405       .  S
S362        H373   1.408       .  S
C364        C365   1.432       .  A
C364        S369   1.804       .  S
C365        C366   1.418       .  A
C365        H370   1.082       .  S
C366        C367   1.430       .  A
C367        C368   1.428       .  A
C367        S371   1.800   1_565  S
C368        H372   1.083   1_565  S
S369        H374   1.406       .  S
S371        H375   1.408       .  S
C377        C378   1.403       .  A
C377        C382   1.407       .  A
C377        H387   1.084       .  S
C378        C383   1.498       .  S
C378        C379   1.414   1_455  A
C379        C380   1.408       .  A
C379        S384   1.804       .  S
C380        C381   1.411   1_655  A
C380        H385   1.083       .  S
C381        C382   1.423       .  A
C382        S386   1.801       .  S
C383        C388   1.411       .  A
C383        C392   1.401   1_455  A
S384        H400   1.405   1_655  S
S386        H397   1.407       .  S
C388        C389   1.412       .  A
C388        S393   1.806       .  S
C389        C390   1.412   1_455  A
C389        H394   1.082       .  S
C390        C391   1.425       .  A
C391        C392   1.407       .  A
C391        S395   1.801       .  S
C392        H396   1.084       .  S
S393        H398   1.407       .  S
S395        H399   1.408       .  S
C401        C402   1.406   1_455  A
C401        C406   1.406       .  A
C401        H411   1.084       .  S
C402        C407   1.502       .  S
C402        C403   1.416       .  A
C403        C404   1.407       .  A
C403        S408   1.803       .  S
C404        C405   1.408       .  A
C404        H409   1.084       .  S
C405        C406   1.418   1_655  A
C406        S410   1.802       .  S
C407        C412   1.414       .  A
C407        C416   1.404   1_655  A
S408        H424   1.406       .  S
S410        H421   1.408       .  S
C412        C413   1.411       .  A
C412        S417   1.807       .  S
C413        C414   1.409   1_655  A
C413        H418   1.082       .  S
C414        C415   1.420       .  A
C415        C416   1.406       .  A
C415        S419   1.801       .  S
C416        H420   1.084       .  S
S417        H422   1.407       .  S
S419        H423   1.404       .  S
C425        C426   1.401   1_655  A
C425        C430   1.397       .  A
C425        H435   1.084       .  S
C426        C431   1.476       .  S
C426        C427   1.413       .  A
C427        C428   1.398   1_556  A
C427        S432   1.804   1_556  S
C428        C429   1.402   1_454  A
C428        H433   1.084       .  S
C429        C430   1.412       .  A
C430        S434   1.804       .  S
C431        C436   1.408       .  A
C431        C440   1.399   1_456  A
S432        H448   1.406   1_554  S
S434        H445   1.407       .  S
C436        C437   1.402       .  A
C436        S441   1.807       .  S
C437        C438   1.407       .  A
C437        H442   1.083       .  S
C438        C439   1.416   1_455  A
C439        C440   1.397   1_556  A
C439        S443   1.798   1_556  S
C440        H444   1.084       .  S
S441        H446   1.407       .  S
S443        H447   1.407   1_655  S
C449        C450   1.399   1_655  A
C449        C454   1.399       .  A
C449        H459   1.083       .  S
C450        C455   1.472   1_554  S
C450        C451   1.409   1_554  A
C451        C452   1.398       .  A
C451        S456   1.804       .  S
C452        C453   1.406   1_456  A
C452        H457   1.084       .  S
C453        C454   1.417       .  A
C454        S458   1.810       .  S
C455        C460   1.407   1_455  A
C455        C464   1.399   1_556  A
S456        H472   1.405       .  S
S458        H469   1.407       .  S
C460        C461   1.403       .  A
C460        S465   1.806       .  S
C461        C462   1.406   1_655  A
C461        H466   1.083       .  S
C462        C463   1.414   1_556  A
C463        C464   1.396       .  A
C463        S467   1.803       .  S
C464        H468   1.084       .  S
S465        H470   1.407       .  S
S467        H471   1.408       .  S
C473        C474   1.397   1_556  A
C473        C478   1.391       .  A
C473        H483   1.084       .  S
C474        C479   1.460       .  S
C474        C475   1.410       .  A
C475        C476   1.394       .  A
C475        S480   1.806   1_545  S
C476        C477   1.402       .  A
C476        H481   1.084       .  S
C477        C478   1.413   1_554  A
C478        S482   1.803       .  S
C479        C484   1.402       .  A
C479        C488   1.398   1_544  A
S480        H496   1.405       .  S
S482        H493   1.407       .  S
C484        C485   1.393       .  A
C484        S489   1.808       .  S
C485        C486   1.408   1_545  A
C485        H490   1.082       .  S
C486        C487   1.416   1_554  A
C487        C488   1.394       .  A
C487        S491   1.802       .  S
C488        H492   1.084       .  S
S489        H494   1.407       .  S
S491        H495   1.408       .  S
C497        C498   1.400       .  A
C497        C502   1.393       .  A
C497        H507   1.084   1_554  S
C498        C503   1.466       .  S
C498        C499   1.409       .  A
C499        C500   1.395       .  A
C499        S504   1.804       .  S
C500        C501   1.402       .  A
C500        H505   1.084       .  S
C501        C502   1.409       .  A
C502        S506   1.802   1_554  S
C503        C508   1.410   1_565  A
C503        C512   1.398       .  A
S504        H520   1.406       .  S
S506        H517   1.405       .  S
C508        C509   1.398       .  A
C508        S513   1.808       .  S
C509        C510   1.399   1_545  A
C509        H514   1.083   1_554  S
C510        C511   1.412       .  A
C511        C512   1.394       .  A
C511        S515   1.805       .  S
C512        H516   1.084       .  S
S513        H518   1.407   1_554  S
S515        H519   1.407       .  S
C521        C522   1.400       .  A
C521        C526   1.397       .  A
C521        H531   1.084   1_545  S
C522        C527   1.469       .  S
C522        C523   1.411       .  A
C523        C524   1.394       .  A
C523        S528   1.804   1_655  S
C524        C525   1.401       .  A
C524        H529   1.084   1_655  S
C525        C526   1.413       .  A
C526        S530   1.804   1_545  S
C527        C532   1.408   1_545  A
C527        C536   1.399       .  A
S528        H544   1.404   1_455  S
S530        H541   1.406       .  S
C532        C533   1.395       .  A
C532        S537   1.809   1_655  S
C533        C534   1.402   1_565  A
C533        H538   1.083   1_655  S
C534        C535   1.417       .  A
C535        C536   1.399       .  A
C535        S539   1.802       .  S
C536        H540   1.084       .  S
S537        H542   1.406       .  S
S539        H543   1.407       .  S
C545        C546   1.402       .  A
C545        C550   1.395       .  A
C545        H555   1.084       .  S
C546        C551   1.470       .  S
C546        C547   1.409       .  A
C547        C548   1.394       .  A
C547        S552   1.804   1_545  S
C548        C549   1.405       .  A
C548        H553   1.084   1_545  S
C549        C550   1.412       .  A
C550        S554   1.804       .  S
C551        C556   1.407       .  A
C551        C560   1.401   1_545  A
S552        H568   1.407       .  S
S554        H565   1.408       .  S
C556        C557   1.402       .  A
C556        S561   1.806       .  S
C557        C558   1.405       .  A
C557        H562   1.083       .  S
C558        C559   1.410   1_545  A
C559        C560   1.391       .  A
C559        S563   1.804   1_455  S
C560        H564   1.084       .  S
S561        H566   1.407       .  S
S563        H567   1.407       .  S
