geometry optimzed in LAMMPS
_audit_creation_date              2020-12-01 
_audit_creation_method            'lammps2cif' 
_symmetry_space_group_name_H-M    'P1' 
_symmetry_Int_Tables_number       1 
_symmetry_cell_setting            triclinic 
loop_ 
_symmetry_equiv_pos_as_xyz 
  x,y,z 
_cell_length_a                    81.55727122 
_cell_length_b                    81.6190760684115 
_cell_length_c                    81.44481772259321 
_cell_angle_alpha                 90.08299035123179 
_cell_angle_beta                  90.03472383368488 
_cell_angle_gamma                 90.03933927994939 
loop_ 
_atom_site_label 
_atom_site_type_symbol 
_atom_site_fract_x 
_atom_site_fract_y 
_atom_site_fract_z 
_atom_site_charge 
N1          N  0.00070109  0.12176819  0.91672802    -0.26500
N2          N  0.99169583  0.11049444  0.92404546    -0.34400
C3          C  0.99770824  0.09561116  0.92039993     0.01800
C4          C  0.01116958  0.09756363  0.91023903     0.07900
C5          C  0.01262976  0.11435184  0.90808420    -0.05200
H6          H  0.99319829  0.08425930  0.92555176     0.08500
H7          H  0.02209730  0.12075459  0.90136019     0.09700
Cu8        Cu  0.97311674  0.11602185  0.94036053     0.44200
Cu9        Cu  0.99772561  0.14657768  0.92114100     0.42000
Cu10       Cu  0.96994815  0.15794147  0.95476469     0.43900
N11         N  0.95733485  0.12339499  0.95876922    -0.33900
N12         N  0.95643486  0.13848237  0.96461724    -0.28100
C13         C  0.94571675  0.13862939  0.97722920    -0.04200
C14         C  0.93955429  0.12287247  0.97932884     0.08000
C15         C  0.94718172  0.11364845  0.96728891     0.01800
H16         H  0.94279341  0.14936268  0.98445859     0.09400
H17         H  0.94555041  0.10070661  0.96490728     0.08500
N18         N  0.98456099  0.17454795  0.94174182    -0.35300
N19         N  0.99438066  0.17032022  0.92951464    -0.27500
C20         C  0.00213012  0.18372415  0.92388490    -0.02800
C21         C  0.99699331  0.19710960  0.93292829     0.05900
C22         C  0.98585513  0.19083788  0.94415892     0.03900
H23         H  0.01109323  0.18367036  0.91409695     0.09100
H24         H  0.97920433  0.19762632  0.95342486     0.07900
N25         N  0.85050615  0.05174895  0.08805548    -0.26500
N26         N  0.86561542  0.05704276  0.08561920    -0.34400
C27         C  0.87546551  0.05073711  0.09721070     0.01800
C28         C  0.86616296  0.04083744  0.10738955     0.07900
C29         C  0.85035093  0.04182739  0.10123575    -0.05200
H30         H  0.88853527  0.05289719  0.09792111     0.08500
H31         H  0.83963932  0.03536730  0.10564486     0.09700
Cu32       Cu  0.87251072  0.07132413  0.06580663     0.44200
Cu33       Cu  0.83123572  0.05761451  0.07260843     0.42000
Cu34       Cu  0.84174877  0.08038870  0.03529926     0.43900
N35         N  0.87744746  0.08381890  0.04426332    -0.33900
N36         N  0.86633325  0.08691738  0.03287038    -0.28100
C37         C  0.87367145  0.09460928  0.02023041    -0.04200
C38         C  0.89020152  0.09646146  0.02386745     0.08000
C39         C  0.89208292  0.08949649  0.03924667     0.01800
H40         H  0.86748838  0.09833764  0.00909113     0.09400
H41         H  0.90330206  0.08851407  0.04626732     0.08500
N42         N  0.81806887  0.07312258  0.04157373    -0.35300
N43         N  0.81438718  0.06482445  0.05503034    -0.27500
C44         C  0.79809319  0.06243057  0.05561679    -0.02800
C45         C  0.79115595  0.06959565  0.04193645     0.05900
C46         C  0.80413357  0.07630372  0.03330281     0.03900
H47         H  0.79171377  0.05633244  0.06552268     0.09100
H48         H  0.80346249  0.08321871  0.02200034     0.07900
N49         N  0.14075248  0.92042778  0.01262897    -0.26500
N50         N  0.12734002  0.91138047  0.01215932    -0.34400
C51         C  0.11846775  0.91561240  0.99891290     0.01800
C52         C  0.12670795  0.92798590  0.99068195     0.07900
C53         C  0.14077381  0.93073349  0.99979298    -0.05200
H54         H  0.10701538  0.90990576  0.99539328     0.08500
H55         H  0.15044844  0.93941889  0.99717691     0.09700
Cu56       Cu  0.12229430  0.89354088  0.02949245     0.44200
Cu57       Cu  0.15929384  0.91674467  0.02940036     0.32400
Cu58       Cu  0.15676853  0.88002945  0.05440851     0.43900
N59         N  0.12042560  0.87686398  0.04855338    -0.33900
N60         N  0.13291549  0.87174108  0.05753968    -0.28100
C61         C  0.12730995  0.86138074  0.06910047    -0.04200
C62         C  0.11047773  0.85995812  0.06729489     0.08000
C63         C  0.10657935  0.86996593  0.05416970     0.01800
H64         H  0.13490459  0.85550121  0.07825016     0.09400
H65         H  0.09447637  0.87236440  0.04928778     0.08500
N66         N  0.17832446  0.89286406  0.05018058    -0.35300
N67         N  0.17884349  0.90675451  0.04188274    -0.27500
C68         C  0.19435480  0.91215847  0.04133317    -0.02800
C69         C  0.20422713  0.90106231  0.04948015     0.05900
C70         C  0.19362380  0.88897222  0.05499441     0.03900
H71         H  0.19819473  0.92321742  0.03511500     0.09100
H72         H  0.19680405  0.87799987  0.06170977     0.07900
N73         N  0.07057888  0.02535409  0.88268148    -0.26500
N74         N  0.07267397  0.02381601  0.89869866    -0.34400
C75         C  0.06375333  0.03529996  0.90644839     0.01800
C76         C  0.05558314  0.04437797  0.89471583     0.07900
C77         C  0.06014420  0.03777181  0.87978281    -0.05200
H78         H  0.06304951  0.03675850  0.91963448     0.08500
H79         H  0.05620148  0.04169910  0.86773079     0.09700
Cu80       Cu  0.08655819  0.00540675  0.90920977     0.44200
Cu81       Cu  0.08185131  0.01028384  0.86567382     0.42000
Cu82       Cu  0.10388698  0.97506649  0.88142963     0.43900
N83         N  0.09820154  0.98424377  0.91686138    -0.33900
N84         N  0.10425101  0.97303302  0.90682270    -0.28100
C85         C  0.11018296  0.96053038  0.91577635    -0.04200
C86         C  0.10776592  0.96407236  0.93223546     0.08000
C87         C  0.10017332  0.97921865  0.93243291     0.01800
H88         H  0.11566794  0.94959147  0.91066394     0.09400
H89         H  0.09630214  0.98608295  0.94312169     0.08500
N90         N  0.10121785  0.98012171  0.85660738    -0.35300
N91         N  0.09332079  0.99309021  0.85097461    -0.27500
C92         C  0.09322659  0.99262330  0.83449606    -0.02800
C93         C  0.10133887  0.97862174  0.82945578     0.05900
C94         C  0.10630735  0.97100628  0.84380694     0.03900
H95         H  0.08735714  0.00165104  0.82675997     0.09100
H96         H  0.11269759  0.95944519  0.84488066     0.07900
N97         N  0.93635673  0.93661404  0.19840077    -0.26500
N98         N  0.92711293  0.93729388  0.18508352    -0.34400
C99         C  0.92969355  0.92379024  0.17599325     0.01800
C100        C  0.94112964  0.91413452  0.18395570     0.07900
C101        C  0.94506626  0.92262134  0.19814766    -0.05200
H102        H  0.92405459  0.92143191  0.16419645     0.08500
H103        H  0.95405436  0.91918154  0.20728828     0.09700
Cu104      Cu  0.91262117  0.95720103  0.17900309     0.44200
Cu105      Cu  0.93723641  0.95520988  0.21574626     0.42000
Cu106      Cu  0.91399429  0.99205692  0.20617044     0.43900
N107        N  0.90156213  0.97944048  0.17386650    -0.33900
N108        N  0.90221131  0.99229406  0.18372955    -0.28100
C109        C  0.89535354  0.00522240  0.17616544    -0.04200
C110        C  0.89021542  0.00026359  0.16075990     0.08000
C111        C  0.89428289  0.98383497  0.15975121     0.01800
H112        H  0.89498582  0.01751400  0.18114172     0.09400
H113        H  0.89281037  0.97587598  0.14921693     0.08500
N114        N  0.92639960  0.98843554  0.22797031    -0.35300
N115        N  0.93478911  0.97503881  0.23149295    -0.27500
C116        C  0.94016717  0.97605376  0.24705415    -0.02800
C117        C  0.93489453  0.99077199  0.25364777     0.05900
C118        C  0.92627743  0.99834767  0.24115573     0.03900
H119        H  0.94675221  0.96643104  0.25336235     0.09100
H120        H  0.91988917  0.00994443  0.24175798     0.07900
N121        N  0.03757360  0.81604981  0.11503007    -0.26500
N122        N  0.03673232  0.83059231  0.12207619    -0.34400
C123        C  0.04933242  0.83981973  0.11685259     0.01800
C124        C  0.05868519  0.83058980  0.10606497     0.07900
C125        C  0.05086403  0.81552053  0.10528486    -0.05200
H126        H  0.05122330  0.85250667  0.12022775     0.08500
H127        H  0.05436600  0.80503465  0.09795114     0.09700
Cu128      Cu  0.01781497  0.83729096  0.13758462     0.44200
Cu129      Cu  0.01979945  0.79830830  0.11832586     0.42000
Cu130      Cu  0.98517282  0.80790647  0.14528584     0.43900
N131        N  0.99649155  0.84263173  0.15022445    -0.33900
N132        N  0.98437942  0.83217669  0.15281573    -0.28100
C133        C  0.97167132  0.84027019  0.15958395    -0.04200
C134        C  0.97604814  0.85659058  0.16126337     0.08000
C135        C  0.99189605  0.85755916  0.15533983     0.01800
H136        H  0.95986723  0.83485414  0.16227975     0.09400
H137        H  0.99929603  0.86849641  0.15411773     0.08500
N138        N  0.98897112  0.78526552  0.13434774    -0.35300
N139        N  0.00122076  0.78211650  0.12419205    -0.27500
C140        C  0.00029311  0.76644267  0.11931724    -0.02800
C141        C  0.98697611  0.75923900  0.12692573     0.05900
C142        C  0.98001530  0.77155467  0.13632263     0.03900
H143        H  0.00898563  0.76059611  0.11117125     0.09100
H144        H  0.96952632  0.77051480  0.14437967     0.07900
N145        N  0.94210076  0.52684259  0.67564074    -0.26500
N146        N  0.93785468  0.52550700  0.66002803    -0.34400
C147        C  0.94665948  0.53623833  0.65115063     0.01800
C148        C  0.95695476  0.54472113  0.66167480     0.07900
C149        C  0.95376692  0.53842488  0.67711137    -0.05200
H150        H  0.94564856  0.53776133  0.63799482     0.08500
H151        H  0.95931220  0.54216759  0.68859074     0.09700
Cu152      Cu  0.92026888  0.50917650  0.65149464     0.44200
Cu153      Cu  0.93130685  0.51327215  0.69420263     0.42000
Cu154      Cu  0.89804497  0.48603710  0.68201608     0.43900
N155        N  0.90299510  0.49134539  0.64583994    -0.33900
N156        N  0.89480554  0.48290443  0.65699013    -0.28100
C157        C  0.88537114  0.47168955  0.64938042    -0.04200
C158        C  0.88776158  0.47313891  0.63261852     0.08000
C159        C  0.89897555  0.48574614  0.63084072     0.01800
H160        H  0.87765449  0.46288930  0.65561224     0.09400
H161        H  0.90427259  0.49013064  0.61948953     0.08500
N162        N  0.90554763  0.48950137  0.70606751    -0.35300
N163        N  0.91780649  0.49917591  0.71046108    -0.27500
C164        C  0.92002249  0.49801097  0.72677215    -0.02800
C165        C  0.90862690  0.48707314  0.73293636     0.05900
C166        C  0.89963601  0.48193891  0.71946868     0.03900
H167        H  0.92946730  0.50438885  0.73358781     0.09100
H168        H  0.88968626  0.47316562  0.71936970     0.07900
N169        N  0.07554728  0.41421092  0.34984440    -0.26500
N170        N  0.08239491  0.41519035  0.36452710    -0.34400
C171        C  0.07476718  0.40473745  0.37470608     0.01800
C172        C  0.06241303  0.39689577  0.36606859     0.07900
C173        C  0.06330798  0.40318201  0.35032317    -0.05200
H174        H  0.07768510  0.40333253  0.38758659     0.08500
H175        H  0.05527221  0.40040171  0.34011778     0.09700
Cu176      Cu  0.10027776  0.43209899  0.37080070     0.44200
Cu177      Cu  0.08232682  0.42863787  0.33012222     0.42000
Cu178      Cu  0.11178328  0.46046007  0.33894247     0.43900
N179        N  0.11458030  0.45266519  0.37490115    -0.33900
N180        N  0.11855733  0.46314403  0.36320087    -0.28100
C181        C  0.12593053  0.47622139  0.36997491    -0.04200
C182        C  0.12665500  0.47383246  0.38673633     0.08000
C183        C  0.11939803  0.45877697  0.38947059     0.01800
H184        H  0.12967073  0.48704873  0.36330101     0.09400
H185        H  0.11682578  0.45321015  0.40123893     0.08500
N186        N  0.10161466  0.45669290  0.31604988    -0.35300
N187        N  0.09076933  0.44509767  0.31279336    -0.27500
C188        C  0.08598306  0.44644244  0.29706125    -0.02800
C189        C  0.09419558  0.45955158  0.29014035     0.05900
C190        C  0.10402604  0.46574300  0.30250995     0.03900
H191        H  0.07687648  0.43873649  0.29123449     0.09100
H192        H  0.11212247  0.47622553  0.30181187     0.07900
N193        N  0.05392299  0.62495121  0.57541419    -0.26500
N194        N  0.05281860  0.61046745  0.58258965    -0.34400
C195        C  0.06222469  0.59966759  0.57445208     0.01800
C196        C  0.06957071  0.60770640  0.56149388     0.07900
C197        C  0.06404103  0.62370949  0.56241614    -0.05200
H198        H  0.06366973  0.58692027  0.57777469     0.08500
H199        H  0.06743133  0.63377206  0.55447749     0.09700
Cu200      Cu  0.03859862  0.60580206  0.60303988     0.44200
Cu201      Cu  0.04243965  0.64585967  0.58441075     0.42000
Cu202      Cu  0.01954589  0.64025652  0.62255904     0.43900
N203        N  0.02197651  0.60351810  0.62202720    -0.33900
N204        N  0.01478554  0.61614017  0.62919575    -0.28100
C205        C  0.00330355  0.61052958  0.63964768    -0.04200
C206        C  0.00331315  0.59355434  0.63898548     0.08000
C207        C  0.01534183  0.58957084  0.62772101     0.01800
H208        H  0.99501202  0.61822978  0.64657269     0.09400
H209        H  0.01830702  0.57745813  0.62320175     0.08500
N210        N  0.02423775  0.66289076  0.61186807    -0.35300
N211        N  0.03192155  0.66491112  0.59771978    -0.27500
C212        C  0.03213793  0.68097795  0.59401022    -0.02800
C213        C  0.02432402  0.68954070  0.60647301     0.05900
C214        C  0.01955329  0.67761494  0.61759560     0.03900
H215        H  0.03749501  0.68602548  0.58297199     0.09100
H216        H  0.01310709  0.67947825  0.62904963     0.07900
N217        N  0.15889656  0.53934596  0.45109146    -0.26500
N218        N  0.14368293  0.53891290  0.45666885    -0.34400
C219        C  0.13498316  0.52816681  0.44770112     0.01800
C220        C  0.14523286  0.52151012  0.43595822     0.07900
C221        C  0.16031013  0.52883407  0.43845208    -0.05200
H222        H  0.12213419  0.52543914  0.44956055     0.08500
H223        H  0.17141143  0.52685678  0.43146078     0.09700
Cu224      Cu  0.13521619  0.55302206  0.47598200     0.44200
Cu225      Cu  0.17692392  0.55436309  0.46066563     0.42000
Cu226      Cu  0.16439813  0.58116789  0.49378666     0.43900
N227        N  0.12962149  0.56866737  0.49515928    -0.33900
N228        N  0.14030009  0.57900993  0.50164259    -0.28100
C229        C  0.13298460  0.58732046  0.51386298    -0.04200
C230        C  0.11692768  0.58196867  0.51510770     0.08000
C231        C  0.11521217  0.57013748  0.50304977     0.01800
H232        H  0.13890738  0.59660250  0.52128562     0.09400
H233        H  0.10435726  0.56301152  0.50031025     0.08500
N234        N  0.18816854  0.57992105  0.48481959    -0.35300
N235        N  0.19273603  0.57000526  0.47281720    -0.27500
C236        C  0.20909436  0.57086410  0.47104196    -0.02800
C237        C  0.21510538  0.58186993  0.48246914     0.05900
C238        C  0.20151864  0.58741217  0.49096378     0.03900
H239        H  0.21616118  0.56340079  0.46264578     0.09100
H240        H  0.20146963  0.59548063  0.50151532     0.07900
N241        N  0.00482419  0.32976084  0.40573413    -0.26500
N242        N  0.99352333  0.34135270  0.40644993    -0.34400
C243        C  0.99898513  0.35459329  0.39831733     0.01800
C244        C  0.01451570  0.35122609  0.39233265     0.07900
C245        C  0.01776585  0.33533721  0.39718625    -0.05200
H246        H  0.99259700  0.36619275  0.39776666     0.08500
H247        H  0.02917985  0.32875611  0.39568440     0.09700
Cu248      Cu  0.97259573  0.34000644  0.42092286     0.44200
Cu249      Cu  0.00354649  0.30791769  0.41850630     0.42000
Cu250      Cu  0.97052962  0.30463966  0.44748975     0.43900
N251        N  0.95483653  0.33689566  0.43893794    -0.33900
N252        N  0.95428190  0.32395815  0.44866222    -0.28100
C253        C  0.94216590  0.32590931  0.45963810    -0.04200
C254        C  0.93467794  0.34080648  0.45674328     0.08000
C255        C  0.94302486  0.34746809  0.44351231     0.01800
H256        H  0.93936296  0.31733466  0.46936007     0.09400
H257        H  0.94090605  0.35926690  0.43786238     0.08500
N258        N  0.98826085  0.28687232  0.44457669    -0.35300
N259        N  0.00037160  0.28802274  0.43387690    -0.27500
C260        C  0.00961892  0.27443887  0.43476622    -0.02800
C261        C  0.00296859  0.26425963  0.44658913     0.05900
C262        C  0.98944611  0.27253720  0.45257583     0.03900
H263        H  0.02020662  0.27200762  0.42714683     0.09100
H264        H  0.98100394  0.26840269  0.46193815     0.07900
N265        N  0.84967941  0.42148575  0.55916458    -0.26500
N266        N  0.86452013  0.41516220  0.55772585    -0.34400
C267        C  0.87431858  0.42192758  0.56919451     0.01800
C268        C  0.86513788  0.43303590  0.57821196     0.07900
C269        C  0.84959176  0.43241616  0.57150522    -0.05200
H270        H  0.88715865  0.41902665  0.57082175     0.08500
H271        H  0.83893222  0.43925667  0.57543762     0.09700
Cu272      Cu  0.87040843  0.39780873  0.53996015     0.44200
Cu273      Cu  0.83011605  0.41477748  0.54458425     0.42000
Cu274      Cu  0.83706006  0.38444926  0.51303933     0.43900
N275        N  0.87336321  0.38243882  0.51978626    -0.33900
N276        N  0.86137770  0.37792614  0.50981169    -0.28100
C277        C  0.86776816  0.36956360  0.49709026    -0.04200
C278        C  0.88460205  0.36869863  0.49915060     0.08000
C279        C  0.88764975  0.37687603  0.51376568     0.01800
H280        H  0.86073538  0.36508471  0.48674838     0.09400
H281        H  0.89947664  0.37912813  0.51935217     0.08500
N282        N  0.81434526  0.39464064  0.51792910    -0.35300
N283        N  0.81198094  0.40599958  0.52926627    -0.27500
C284        C  0.79627346  0.41087436  0.52882210    -0.02800
C285        C  0.78836880  0.40212579  0.51665068     0.05900
C286        C  0.80013333  0.39190112  0.50999985     0.03900
H287        H  0.79105380  0.42024906  0.53663236     0.09100
H288        H  0.79860201  0.38347911  0.49984363     0.07900
N289        N  0.06104522  0.32714472  0.94359821    -0.26500
N290        N  0.05645397  0.34231584  0.94029450    -0.34400
C291        C  0.06681645  0.35280814  0.94765649     0.01800
C292        C  0.07856327  0.34385789  0.95598741     0.07900
C293        C  0.07452409  0.32760328  0.95313722    -0.05200
H294        H  0.06566438  0.36600725  0.94726827     0.08500
H295        H  0.08079066  0.31690090  0.95780874     0.09700
Cu296      Cu  0.03602813  0.34829094  0.92646536     0.44200
Cu297      Cu  0.04805669  0.30663777  0.93585145     0.42000
Cu298      Cu  0.01044517  0.31481141  0.91313633     0.43900
N299        N  0.01477967  0.35149611  0.91295624    -0.33900
N300        N  0.00534375  0.33925567  0.90805119    -0.28100
C301        C  0.99209940  0.34543565  0.90039230    -0.04200
C302        C  0.99327926  0.36237320  0.90050716     0.08000
C303        C  0.00783337  0.36576603  0.90854561     0.01800
H304        H  0.98213895  0.33816341  0.89548118     0.09400
H305        H  0.01271078  0.37774029  0.91151635     0.08500
N306        N  0.01773936  0.29159370  0.92072075    -0.35300
N307        N  0.03151694  0.28859713  0.92874081    -0.27500
C308        C  0.03228388  0.27250528  0.93223310    -0.02800
C309        C  0.01826273  0.26497382  0.92623999     0.05900
C310        C  0.00935502  0.27749178  0.91899724     0.03900
H311        H  0.04222549  0.26676401  0.93887321     0.09100
H312        H  0.99742560  0.27649903  0.91326378     0.07900
N313        N  0.93006529  0.42601645  0.86233892    -0.26500
N314        N  0.92540609  0.42873566  0.87764587    -0.34400
C315        C  0.93414647  0.41902478  0.88771934     0.01800
C316        C  0.94478129  0.40969440  0.87829153     0.07900
C317        C  0.94177319  0.41443907  0.86225497    -0.05200
H318        H  0.93304939  0.41898827  0.90095583     0.08500
H319        H  0.94775693  0.40990666  0.85130342     0.09700
Cu320      Cu  0.90754365  0.44569784  0.88410195     0.44200
Cu321      Cu  0.92095598  0.43856870  0.84220411     0.42000
Cu322      Cu  0.88782705  0.46649145  0.84995496     0.43900
N323        N  0.88962478  0.46357052  0.88683908    -0.33900
N324        N  0.88238259  0.47094755  0.87434095    -0.28100
C325        C  0.87250142  0.48278937  0.88009364    -0.04200
C326        C  0.87357536  0.48292361  0.89702539     0.08000
C327        C  0.88448650  0.47054286  0.90090789     0.01800
H328        H  0.86571045  0.49125115  0.87246891     0.09400
H329        H  0.88907360  0.46747776  0.91298533     0.08500
N330        N  0.89769476  0.46269178  0.82689358    -0.35300
N331        N  0.91017205  0.45276469  0.82410708    -0.27500
C332        C  0.91451826  0.45391755  0.80823301    -0.02800
C333        C  0.90422146  0.46507013  0.80062504     0.05900
C334        C  0.89367053  0.47033878  0.81285573     0.03900
H335        H  0.92467925  0.44740303  0.80273462     0.09100
H336        H  0.88394672  0.47927466  0.81172220     0.07900
N337        N  0.98262761  0.61517071  0.12652308    -0.26500
N338        N  0.97626071  0.60378847  0.11686321    -0.34400
C339        C  0.98430109  0.58961577  0.11927234     0.01800
C340        C  0.99636017  0.59228647  0.13090480     0.07900
C341        C  0.99496525  0.60859611  0.13523902    -0.05200
H342        H  0.98200922  0.57840073  0.11255279     0.08500
H343        H  0.00267305  0.61531272  0.14371891     0.09700
Cu344      Cu  0.95819976  0.60845929  0.09961137     0.44200
Cu345      Cu  0.97552773  0.63948635  0.12627141     0.42000
Cu346      Cu  0.94964187  0.65135000  0.09242314     0.43900
N347        N  0.94141950  0.61682593  0.08246895    -0.33900
N348        N  0.93839785  0.63250462  0.07980203    -0.28100
C349        C  0.92672666  0.63386221  0.06823951    -0.04200
C350        C  0.92220241  0.61827628  0.06335541     0.08000
C351        C  0.93178311  0.60777110  0.07260960     0.01800
H352        H  0.92168939  0.64534559  0.06395098     0.09400
H353        H  0.93170163  0.59451970  0.07226543     0.08500
N354        N  0.96068903  0.66785946  0.10812550    -0.35300
N355        N  0.96948764  0.66350957  0.12101616    -0.27500
C356        C  0.97492147  0.67705426  0.12866719    -0.02800
C357        C  0.96948584  0.69061448  0.12001616     0.05900
C358        C  0.96046890  0.68427292  0.10707844     0.03900
H359        H  0.98267560  0.67698148  0.13944527     0.09100
H360        H  0.95462411  0.69105533  0.09729018     0.07900
N361        N  0.84937069  0.59348384  0.00394047    -0.26500
N362        N  0.86100789  0.58627445  0.99526933    -0.34400
C363        C  0.87566430  0.58978450  0.00195718     0.01800
C364        C  0.87306533  0.59959140  0.01552956     0.07900
C365        C  0.85628267  0.60168183  0.01648391    -0.05200
H366        H  0.88724110  0.58481462  0.99781151     0.08500
H367        H  0.84956740  0.60812150  0.02595146     0.09700
Cu368      Cu  0.85621400  0.57011343  0.97634739     0.44200
Cu369      Cu  0.82465072  0.59051466  0.99913746     0.42000
Cu370      Cu  0.81365601  0.55939022  0.96907585     0.43900
N371        N  0.84870290  0.55215660  0.96011345    -0.33900
N372        N  0.83324098  0.54798004  0.95757021    -0.28100
C373        C  0.83274426  0.53562440  0.94661816    -0.04200
C374        C  0.84866858  0.53193922  0.94208061     0.08000
C375        C  0.85844242  0.54263168  0.95087852     0.01800
H376        H  0.82163430  0.52986845  0.94218815     0.09400
H377        H  0.87168721  0.54336869  0.95066411     0.08500
N378        N  0.79672768  0.57312948  0.98215468    -0.35300
N379        N  0.80078594  0.58458380  0.99291181    -0.27500
C380        C  0.78707418  0.59092503  0.99946405    -0.02800
C381        C  0.77371519  0.58302642  0.99258934     0.05900
C382        C  0.78029638  0.57184312  0.98163333     0.03900
H383        H  0.78687147  0.60038914  0.00877613     0.09100
H384        H  0.77365374  0.56310531  0.97415915     0.07900
N385        N  0.16335766  0.42725069  0.05641639    -0.26500
N386        N  0.14892316  0.41998637  0.05513387    -0.34400
C387        C  0.13875255  0.42619449  0.06652289     0.01800
C388        C  0.14719406  0.43793189  0.07540933     0.07900
C389        C  0.16276838  0.43826791  0.06868729    -0.05200
H390        H  0.12602077  0.42273976  0.06792631     0.08500
H391        H  0.17286139  0.44609433  0.07229715     0.09700
Cu392      Cu  0.14332516  0.40275403  0.03735428     0.44200
Cu393      Cu  0.18294357  0.42234645  0.04100681     0.42000
Cu394      Cu  0.17562486  0.39251492  0.00875615     0.43900
N395        N  0.14001969  0.38752657  0.01730637    -0.33900
N396        N  0.15176690  0.38386713  0.00674404    -0.28100
C397        C  0.14535714  0.37481567  0.99450582    -0.04200
C398        C  0.12879468  0.37268697  0.99754662     0.08000
C399        C  0.12584770  0.38088422  0.01211103     0.01800
H400        H  0.15214347  0.37050598  0.98394053     0.09400
H401        H  0.11413145  0.38249134  0.01812383     0.08500
N402        N  0.19803550  0.40394356  0.01269300    -0.35300
N403        N  0.20061301  0.41500815  0.02428998    -0.27500
C404        C  0.21630730  0.42001996  0.02357496    -0.02800
C405        C  0.22399314  0.41166625  0.01096427     0.05900
C406        C  0.21205404  0.40157280  0.00433432     0.03900
H407        H  0.22181071  0.42882220  0.03185858     0.09100
H408        H  0.21348058  0.39305891  0.99424283     0.07900
N409        N  0.06071952  0.52877942  0.16665007    -0.26500
N410        N  0.06658168  0.52861387  0.15153167    -0.34400
C411        C  0.05798407  0.53916345  0.14227573     0.01800
C412        C  0.04613424  0.54631918  0.15205374     0.07900
C413        C  0.04821696  0.53946990  0.16744329    -0.05200
H414        H  0.05999665  0.54121669  0.12931163     0.08500
H415        H  0.04110631  0.54197826  0.17837062     0.09700
Cu416      Cu  0.08555556  0.51367586  0.14402745     0.44200
Cu417      Cu  0.06988475  0.51425165  0.18529445     0.42000
Cu418      Cu  0.10642693  0.49061637  0.17542427     0.43900
N419        N  0.10392768  0.49699760  0.13918453    -0.33900
N420        N  0.11180992  0.48872224  0.15066664    -0.28100
C421        C  0.12195200  0.47793574  0.14343138    -0.04200
C422        C  0.12027290  0.47945859  0.12658407     0.08000
C423        C  0.10878290  0.49169208  0.12435130     0.01800
H424        H  0.12939528  0.46910819  0.14994729     0.09400
H425        H  0.10366361  0.49581521  0.11281801     0.08500
N426        N  0.09565574  0.49130025  0.19841729    -0.35300
N427        N  0.08202695  0.49936708  0.20183078    -0.27500
C428        C  0.07768913  0.49627822  0.21743707    -0.02800
C429        C  0.08920191  0.48583581  0.22422424     0.05900
C430        C  0.10043235  0.48298897  0.21180773     0.03900
H431        H  0.06682648  0.50111965  0.22330824     0.09100
H432        H  0.11122324  0.47530972  0.21239874     0.07900
N433        N  0.40479968  0.51825367  0.87228621    -0.26500
N434        N  0.40771206  0.52813962  0.88482291    -0.34400
C435        C  0.40354294  0.52042713  0.89880650     0.01800
C436        C  0.39768267  0.50496648  0.89484616     0.07900
C437        C  0.39867300  0.50404550  0.87791839    -0.05200
H438        H  0.40461101  0.52571528  0.91094864     0.08500
H439        H  0.39491848  0.49390420  0.87021449     0.09700
Cu440      Cu  0.41695289  0.55173763  0.88214585     0.44200
Cu441      Cu  0.40889178  0.52452454  0.84804512     0.42000
Cu442      Cu  0.42310257  0.56547004  0.84002889     0.43900
N443        N  0.42708859  0.57423609  0.87579315    -0.33900
N444        N  0.42915077  0.57919188  0.86047802    -0.28100
C445        C  0.43722590  0.59354021  0.86050119    -0.04200
C446        C  0.44049487  0.59782129  0.87659327     0.08000
C447        C  0.43382651  0.58535631  0.88597328     0.01800
H448        H  0.44107646  0.59999912  0.84957007     0.09400
H449        H  0.43458998  0.58403909  0.89916786     0.08500
N450        N  0.41868439  0.54846081  0.82175746    -0.35300
N451        N  0.41358512  0.53338993  0.82474999    -0.27500
C452        C  0.41193337  0.52532877  0.81045887    -0.02800
C453        C  0.41620418  0.53584639  0.79787116     0.05900
C454        C  0.42045381  0.55040661  0.80546477     0.03900
H455        H  0.40784073  0.51276690  0.80931276     0.09100
H456        H  0.42432121  0.56164034  0.79958479     0.07900
N457        N  0.35505795  0.44042948  0.95451639    -0.26500
N458        N  0.37030955  0.43678220  0.95861334    -0.34400
C459        C  0.38065411  0.44572544  0.94943023     0.01800
C460        C  0.37151228  0.45551694  0.93903730     0.07900
C461        C  0.35531142  0.45181215  0.94257909    -0.05200
H462        H  0.39386437  0.44552659  0.95063333     0.08500
H463        H  0.34450358  0.45724123  0.93713667     0.09700
Cu464      Cu  0.37655190  0.42089512  0.97738751     0.44200
Cu465      Cu  0.33470278  0.43077243  0.96637894     0.42000
Cu466      Cu  0.34358459  0.40564784  0.00235727     0.43900
N467        N  0.38020325  0.40620703  0.99775775    -0.33900
N468        N  0.36813397  0.40049743  0.00692923    -0.28100
C469        C  0.37456941  0.39202434  0.01954423    -0.04200
C470        C  0.39153584  0.39254736  0.01833667     0.08000
C471        C  0.39461593  0.40164628  0.00433403     0.01800
H472        H  0.36742303  0.38622414  0.02909650     0.09400
H473        H  0.40647795  0.40521702  0.99959321     0.08500
N474        N  0.32012559  0.41255389  0.99513483    -0.35300
N475        N  0.31685370  0.42128170  0.98186301    -0.27500
C476        C  0.30052104  0.42329999  0.98065249    -0.02800
C477        C  0.29312558  0.41556535  0.99385484     0.05900
C478        C  0.30597523  0.40893531  0.00277809     0.03900
H479        H  0.29449055  0.42989822  0.97085416     0.09100
H480        H  0.30512227  0.40205453  0.01408968     0.07900
N481        N  0.54530799  0.68567373  0.95090436    -0.26500
N482        N  0.54282888  0.67089929  0.94471636    -0.34400
C483        C  0.55316794  0.66029060  0.95183900     0.01800
C484        C  0.56252386  0.66867636  0.96325829     0.07900
C485        C  0.55724892  0.68479283  0.96229387    -0.05200
H486        H  0.55353676  0.64730541  0.94917941     0.08500
H487        H  0.56139827  0.69501608  0.96967679     0.09700
Cu488      Cu  0.52429627  0.66501372  0.92845624     0.44200
Cu489      Cu  0.53156301  0.70599608  0.94419449     0.42000
Cu490      Cu  0.49495290  0.69643594  0.92027025     0.43900
N491        N  0.50301566  0.66096365  0.91530984    -0.33900
N492        N  0.49206403  0.67251690  0.91242033    -0.28100
C493        C  0.47924174  0.66591696  0.90440586    -0.04200
C494        C  0.48227239  0.64937351  0.90223014     0.08000
C495        C  0.49746075  0.64667093  0.90928776     0.01800
H496        H  0.46841663  0.67260972  0.90068713     0.09400
H497        H  0.50377353  0.63507243  0.91042592     0.08500
N498        N  0.50111518  0.71967962  0.92829399    -0.35300
N499        N  0.51464769  0.72335095  0.93645368    -0.27500
C500        C  0.51508593  0.73963304  0.93903915    -0.02800
C501        C  0.50107734  0.74650659  0.93229635     0.05900
C502        C  0.49250950  0.73343895  0.92566821     0.03900
H503        H  0.52492224  0.74598020  0.94529928     0.09100
H504        H  0.48082444  0.73386748  0.91939038     0.07900
N505        N  0.45726358  0.35353654  0.07944819    -0.26500
N506        N  0.45922232  0.36886681  0.08434650    -0.34400
C507        C  0.44921972  0.37861031  0.07560587     0.01800
C508        C  0.44052152  0.36898520  0.06465318     0.07900
C509        C  0.44595186  0.35314304  0.06739519    -0.05200
H510        H  0.44834242  0.39175323  0.07711261     0.08500
H511        H  0.44183712  0.34213253  0.06123003     0.09700
Cu512      Cu  0.47537473  0.37600897  0.10265710     0.44200
Cu513      Cu  0.47007657  0.33397324  0.08959790     0.42000
Cu514      Cu  0.50024373  0.34453977  0.12107012     0.43900
N515        N  0.49275799  0.38063607  0.12063880    -0.33900
N516        N  0.50194182  0.36915329  0.12742015    -0.28100
C517        C  0.51257788  0.37626506  0.13788450    -0.04200
C518        C  0.50998734  0.39305452  0.13761947     0.08000
C519        C  0.49730182  0.39533145  0.12656380     0.01800
H520        H  0.52183315  0.36974262  0.14478913     0.09400
H521        H  0.49223931  0.40690626  0.12255870     0.08500
N522        N  0.49602488  0.32085437  0.11265246    -0.35300
N523        N  0.48494869  0.31696633  0.10142868    -0.27500
C524        C  0.48514232  0.30063195  0.09913002    -0.02800
C525        C  0.49693239  0.29389752  0.10934975     0.05900
C526        C  0.50359505  0.30711705  0.11769946     0.03900
H527        H  0.47715905  0.29411842  0.09074926     0.09100
H528        H  0.51325522  0.30678486  0.12680184     0.07900
N529        N  0.64469839  0.57669299  0.05529276    -0.26500
N530        N  0.63237534  0.58696620  0.05741080    -0.34400
C531        C  0.62308565  0.58170600  0.06998532     0.01800
C532        C  0.62989271  0.56737893  0.07604937     0.07900
C533        C  0.64357090  0.56458439  0.06638520    -0.05200
H534        H  0.61218030  0.58785267  0.07436210     0.08500
H535        H  0.65206126  0.55444739  0.06728638     0.09700
Cu536      Cu  0.62838592  0.60691352  0.04225001     0.44200
Cu537      Cu  0.66275005  0.57995500  0.03780566     0.42000
Cu538      Cu  0.65806994  0.61356906  0.00939593     0.43900
N539        N  0.62468535  0.62255183  0.02260488    -0.33900
N540        N  0.63511913  0.62452160  0.01034297    -0.28100
C541        C  0.62794755  0.63366317  0.99863604    -0.04200
C542        C  0.61226328  0.63766303  0.00379039     0.08000
C543        C  0.61070465  0.63050073  0.01910093     0.01800
H544        H  0.63346371  0.63652473  0.98690688     0.09400
H545        H  0.59993122  0.63043968  0.02684188     0.08500
N546        N  0.67946772  0.60000190  0.01167727    -0.35300
N547        N  0.68088014  0.58740661  0.02175225    -0.27500
C548        C  0.69614150  0.58134484  0.02070866    -0.02800
C549        C  0.70489827  0.59065716  0.00955883     0.05900
C550        C  0.69389941  0.60237119  0.00403455     0.03900
H551        H  0.70061079  0.57108975  0.02781765     0.09100
H552        H  0.69632263  0.61216180  0.99542954     0.07900
N553        N  0.55933295  0.46874733  0.17535667    -0.26500
N554        N  0.56388743  0.47000201  0.15983295    -0.34400
C555        C  0.55711083  0.45774386  0.15115168     0.01800
C556        C  0.54781042  0.44826996  0.16166938     0.07900
C557        C  0.54943329  0.45561343  0.17693891    -0.05200
H558        H  0.55881769  0.45586846  0.13811059     0.08500
H559        H  0.54403575  0.45156887  0.18836775     0.09700
Cu560      Cu  0.57907033  0.48823153  0.15092173     0.44200
Cu561      Cu  0.56751543  0.48476652  0.19351513     0.42000
Cu562      Cu  0.59623003  0.51660969  0.18008906     0.43900
N563        N  0.59360600  0.50788613  0.14425281    -0.33900
N564        N  0.59998188  0.51834816  0.15488953    -0.28100
C565        C  0.60805843  0.53009942  0.14658859    -0.04200
C566        C  0.60661068  0.52688100  0.12994005     0.08000
C567        C  0.59740932  0.51267452  0.12893902     0.01800
H568        H  0.61405870  0.54051598  0.15221699     0.09400
H569        H  0.59346132  0.50645903  0.11787859     0.08500
N570        N  0.58948764  0.51272291  0.20441433    -0.35300
N571        N  0.57888612  0.50142705  0.20921641    -0.27500
C572        C  0.57731956  0.50221099  0.22564431    -0.02800
C573        C  0.58747583  0.51451309  0.23153005     0.05900
C574        C  0.59497671  0.52090905  0.21768427     0.03900
H575        H  0.56943157  0.49430708  0.23279592     0.09100
H576        H  0.60398250  0.53063897  0.21729987     0.07900
N577        N  0.34712523  0.91383056  0.03254955    -0.26500
N578        N  0.35940609  0.91978952  0.04123199    -0.34400
C579        C  0.37346740  0.91747025  0.03300291     0.01800
C580        C  0.36987647  0.90992709  0.01816618     0.07900
C581        C  0.35296808  0.90790891  0.01831131    -0.05200
H582        H  0.38542471  0.92091361  0.03760797     0.08500
H583        H  0.34541805  0.90251891  0.00881251     0.09700
Cu584      Cu  0.35602280  0.93167186  0.06326268     0.44200
Cu585      Cu  0.32338382  0.91329208  0.04138686     0.42000
Cu586      Cu  0.31480668  0.93515990  0.07984056     0.43900
N587        N  0.35011420  0.94501432  0.08388447    -0.33900
N588        N  0.33523302  0.94641965  0.09015802    -0.28100
C589        C  0.33609448  0.95565904  0.10385941    -0.04200
C590        C  0.35231056  0.96018126  0.10620457     0.08000
C591        C  0.36077237  0.95331272  0.09325926     0.01800
H592        H  0.32579146  0.95852672  0.11171205     0.09400
H593        H  0.37381276  0.95407257  0.09094146     0.08500
N594        N  0.29749889  0.92191716  0.06656970    -0.35300
N595        N  0.30084132  0.91368365  0.05298103    -0.27500
C596        C  0.28706472  0.90659963  0.04740155    -0.02800
C597        C  0.27429623  0.91077705  0.05775821     0.05900
C598        C  0.28139218  0.92045390  0.06982812     0.03900
H599        H  0.28635039  0.89930682  0.03632302     0.09100
H600        H  0.27520800  0.92646369  0.07992139     0.07900
N601        N  0.47894334  0.88733575  0.90762542    -0.26500
N602        N  0.46887746  0.89891636  0.91282019    -0.34400
C603        C  0.47454857  0.91356423  0.90783077     0.01800
C604        C  0.48890099  0.91106478  0.89912786     0.07900
C605        C  0.49122795  0.89427616  0.89914374    -0.05200
H606        H  0.46929965  0.92522838  0.91132697     0.08500
H607        H  0.50165388  0.88767636  0.89427922     0.09700
Cu608      Cu  0.44973475  0.89457612  0.92892139     0.44200
Cu609      Cu  0.47744034  0.86306693  0.91473874     0.42000
Cu610      Cu  0.44990774  0.85425145  0.94802016     0.43900
N611        N  0.43459156  0.88791647  0.94818364    -0.33900
N612        N  0.43509570  0.87346170  0.95546703    -0.28100
C613        C  0.42464963  0.87349546  0.96820925    -0.04200
C614        C  0.41710047  0.88866146  0.96894637     0.08000
C615        C  0.42369418  0.89747959  0.95602260     0.01800
H616        H  0.42287298  0.86328610  0.97647704     0.09400
H617        H  0.42091811  0.90998913  0.95264837     0.08500
N618        N  0.46543662  0.83696358  0.93781991    -0.35300
N619        N  0.47546034  0.84021875  0.92550785    -0.27500
C620        C  0.48389064  0.82660987  0.92166161    -0.02800
C621        C  0.47890243  0.81416365  0.93203190     0.05900
C622        C  0.46718221  0.82115853  0.94212583     0.03900
H623        H  0.49304722  0.82585917  0.91208424     0.09100
H624        H  0.46034033  0.81517944  0.95179163     0.07900
N625        N  0.65658333  0.06507797  0.98784384    -0.26500
N626        N  0.64371567  0.07474970  0.98953280    -0.34400
C627        C  0.63272359  0.07122791  0.97776863     0.01800
C628        C  0.63873596  0.05848093  0.96826995     0.07900
C629        C  0.65394609  0.05489949  0.97507912    -0.05200
H630        H  0.62114759  0.07751591  0.97629290     0.08500
H631        H  0.66243134  0.04549760  0.97116658     0.09700
Cu632      Cu  0.64094358  0.09151569  0.00838695     0.44200
Cu633      Cu  0.67726078  0.06692321  0.00272504     0.42000
Cu634      Cu  0.67435618  0.09657186  0.03650835     0.43900
N635        N  0.63952648  0.10585046  0.02929652    -0.33900
N636        N  0.65188731  0.10801793  0.03955008    -0.28100
C637        C  0.64682295  0.11731611  0.05222222    -0.04200
C638        C  0.63036902  0.12098303  0.04994761     0.08000
C639        C  0.62621379  0.11348701  0.03525372     0.01800
H640        H  0.65443908  0.12071361  0.06255902     0.09400
H641        H  0.61419806  0.11301449  0.02963718     0.08500
N642        N  0.69530590  0.08338466  0.03077611    -0.35300
N643        N  0.69651008  0.07289404  0.01844014    -0.27500
C644        C  0.71208743  0.06754046  0.01753281    -0.02800
C645        C  0.72111208  0.07494213  0.02992564     0.05900
C646        C  0.70999137  0.08480139  0.03813343     0.03900
H647        H  0.71662875  0.05928001  0.00818679     0.09100
H648        H  0.71244721  0.09273124  0.04850191     0.07900
N649        N  0.55068719  0.97878849  0.86544528    -0.26500
N650        N  0.55478434  0.98006976  0.88108530    -0.34400
C651        C  0.54559326  0.96975151  0.88998672     0.01800
C652        C  0.53524266  0.96139232  0.87946618     0.07900
C653        C  0.53875780  0.96746188  0.86396410    -0.05200
H654        H  0.54647646  0.96836750  0.90316736     0.08500
H655        H  0.53329722  0.96369489  0.85245240     0.09700
Cu656      Cu  0.57280571  0.99546300  0.88979530     0.44200
Cu657      Cu  0.56217377  0.99235034  0.84720562     0.42000
Cu658      Cu  0.59391323  0.02139831  0.86131090     0.43900
N659        N  0.58980942  0.01270265  0.89693066    -0.33900
N660        N  0.59728612  0.02275749  0.88668463    -0.28100
C661        C  0.60698680  0.03290577  0.89543231    -0.04200
C662        C  0.60558846  0.02890764  0.91196581     0.08000
C663        C  0.59462977  0.01597594  0.91234572     0.01800
H664        H  0.61446055  0.04250121  0.89015740     0.09400
H665        H  0.59047967  0.00932887  0.92304831     0.08500
N666        N  0.58843881  0.01651507  0.83673327    -0.35300
N667        N  0.57683231  0.00631274  0.83173777    -0.27500
C668        C  0.57658524  0.00606017  0.81522527    -0.02800
C669        C  0.58867865  0.01648225  0.80945624     0.05900
C670        C  0.59593718  0.02288674  0.82347236     0.03900
H671        H  0.56819067  0.99878636  0.80794838     0.09100
H672        H  0.60606513  0.03143686  0.82400550     0.07900
N673        N  0.43988332  0.05948928  0.18718885    -0.26500
N674        N  0.43232617  0.05750485  0.17296988    -0.34400
C675        C  0.43816721  0.06847423  0.16216350     0.01800
C676        C  0.45008341  0.07777494  0.16990678     0.07900
C677        C  0.45081504  0.07174932  0.18578456    -0.05200
H678        H  0.43423818  0.06938539  0.14950867     0.08500
H679        H  0.45898720  0.07570447  0.19548171     0.09700
Cu680      Cu  0.41544757  0.03914059  0.16846456     0.44200
Cu681      Cu  0.43517281  0.04510419  0.20761466     0.42000
Cu682      Cu  0.40781853  0.01040376  0.20121601     0.43900
N683        N  0.40087769  0.01856420  0.16593739    -0.33900
N684        N  0.39834160  0.00781714  0.17779332    -0.28100
C685        C  0.38891969  0.99558089  0.17199387    -0.04200
C686        C  0.38533976  0.99886953  0.15572979     0.08000
C687        C  0.39312099  0.01350393  0.15229092     0.01800
H688        H  0.38504671  0.98504951  0.17905419     0.09400
H689        H  0.39343654  0.01981850  0.14062417     0.08500
N690        N  0.41746204  0.01694647  0.22379078    -0.35300
N691        N  0.42734392  0.02958354  0.22615939    -0.27500
C692        C  0.43078374  0.03078862  0.24226285    -0.02800
C693        C  0.42266645  0.01831989  0.25039998     0.05900
C694        C  0.41436883  0.00977412  0.23830157     0.03900
H695        H  0.43839779  0.04021923  0.24767563     0.09100
H696        H  0.40656381  0.99917672  0.23992988     0.07900
N697        N  0.56257164  0.16542325  0.10450371    -0.26500
N698        N  0.55922992  0.15015481  0.10873894    -0.34400
C699        C  0.57059504  0.14017254  0.10219889     0.01800
C700        C  0.58163634  0.14958613  0.09340140     0.07900
C701        C  0.57619425  0.16556070  0.09520161    -0.05200
H702        H  0.57035496  0.12694823  0.10307170     0.08500
H703        H  0.58136924  0.17641667  0.08962554     0.09700
Cu704      Cu  0.53837236  0.14331567  0.12155335     0.44200
Cu705      Cu  0.54738198  0.18508439  0.10985955     0.42000
Cu706      Cu  0.50854955  0.17537665  0.12914623     0.43900
N707        N  0.51558244  0.13919636  0.13202685    -0.33900
N708        N  0.50454399  0.15080531  0.13441397    -0.28100
C709        C  0.49088851  0.14401517  0.14068389    -0.04200
C710        C  0.49347329  0.12732592  0.14247127     0.08000
C711        C  0.50930313  0.12475334  0.13686452     0.01800
H712        H  0.47984926  0.15074444  0.14362259     0.09400
H713        H  0.51582852  0.11322775  0.13637801     0.08500
N714        N  0.51536541  0.19890407  0.12223429    -0.35300
N715        N  0.52947223  0.20237217  0.11502627    -0.27500
C716        C  0.52985311  0.21843820  0.11140854    -0.02800
C717        C  0.51533342  0.22544030  0.11665937     0.05900
C718        C  0.50644820  0.21272054  0.12350972     0.03900
H719        H  0.53990504  0.22455307  0.10528532     0.09100
H720        H  0.49425620  0.21338988  0.12869347     0.07900
N721        N  0.87821036  0.87870447  0.53638216    -0.26500
N722        N  0.89034477  0.88523995  0.52785628    -0.34400
C723        C  0.90471410  0.88028945  0.53421082     0.01800
C724        C  0.90158749  0.87005243  0.54737489     0.07900
C725        C  0.88460703  0.86931977  0.54838700    -0.05200
H726        H  0.91660096  0.88412830  0.52974723     0.08500
H727        H  0.87743118  0.86257980  0.55727403     0.09700
Cu728      Cu  0.88708821  0.90099332  0.50821385     0.44200
Cu729      Cu  0.85361546  0.88391210  0.53170033     0.42000
Cu730      Cu  0.84627486  0.91430650  0.49919282     0.43900
N731        N  0.88158656  0.91691635  0.48922322    -0.33900
N732        N  0.86659218  0.92208670  0.48593522    -0.28100
C733        C  0.86720224  0.93246738  0.47309756    -0.04200
C734        C  0.88337752  0.93376796  0.46804492     0.08000
C735        C  0.89212142  0.92375326  0.47856321     0.01800
H736        H  0.85666884  0.93852061  0.46777973     0.09400
H737        H  0.90522820  0.92171504  0.47856764     0.08500
N738        N  0.82810461  0.90441858  0.51407431    -0.35300
N739        N  0.83062454  0.89335256  0.52567040    -0.27500
C740        C  0.81630052  0.89027702  0.53329814    -0.02800
C741        C  0.80421513  0.89988606  0.52620069     0.05900
C742        C  0.81217350  0.90864589  0.51405277     0.03900
H743        H  0.81487045  0.88196119  0.54353062     0.09100
H744        H  0.80687462  0.91786528  0.50613320     0.07900
N745        N  0.12995534  0.96753496  0.68877976    -0.26500
N746        N  0.12628225  0.95777952  0.67633546    -0.34400
C747        C  0.13070053  0.96514284  0.66223820     0.01800
C748        C  0.13737927  0.98026685  0.66605019     0.07900
C749        C  0.13673265  0.98136353  0.68296759    -0.05200
H750        H  0.12849350  0.96021184  0.65009839     0.08500
H751        H  0.14040493  0.99168669  0.69046651     0.09700
Cu752      Cu  0.11343982  0.93599994  0.67905970     0.44200
Cu753      Cu  0.12413676  0.96251552  0.71295779     0.42000
Cu754      Cu  0.09592059  0.92924719  0.71957043     0.43900
N755        N  0.09689757  0.91746231  0.68448555    -0.33900
N756        N  0.09003366  0.91545521  0.69904466    -0.28100
C757        C  0.07848119  0.90374875  0.69795539    -0.04200
C758        C  0.07805352  0.89804565  0.68194699     0.08000
C759        C  0.09001025  0.90694969  0.67379868     0.01800
H760        H  0.07049539  0.90016850  0.70792845     0.09400
H761        H  0.09303911  0.90631963  0.66088386     0.08500
N762        N  0.10453275  0.94421766  0.73821956    -0.35300
N763        N  0.11511511  0.95624533  0.73581631    -0.27500
C764        C  0.11794839  0.96390214  0.75016216    -0.02800
C765        C  0.10866119  0.95634615  0.76215630     0.05900
C766        C  0.10030408  0.94391324  0.75416559     0.03900
H767        H  0.12570638  0.97456220  0.75163119     0.09100
H768        H  0.09152967  0.93550555  0.75947559     0.07900
N769        N  0.96897936  0.82298143  0.60011942    -0.26500
N770        N  0.97071844  0.83692179  0.60821253    -0.34400
C771        C  0.96009811  0.84798763  0.60214258     0.01800
C772        C  0.95120422  0.84064838  0.58962531     0.07900
C773        C  0.95715511  0.82477505  0.58875360    -0.05200
H774        H  0.95928237  0.86059191  0.60618949     0.08500
H775        H  0.95335770  0.81528567  0.58027658     0.09700
Cu776      Cu  0.98849404  0.84054548  0.62607256     0.44200
Cu777      Cu  0.98358399  0.80251302  0.60402947     0.42000
Cu778      Cu  0.01841323  0.80762868  0.63084307     0.43900
N779        N  0.00963345  0.84237556  0.64010839    -0.33900
N780        N  0.02070574  0.83062049  0.64143768    -0.28100
C781        C  0.03375386  0.83643909  0.64968987    -0.04200
C782        C  0.03077997  0.85263413  0.65374211     0.08000
C783        C  0.01531533  0.85593907  0.64756642     0.01800
H784        H  0.04491434  0.82961994  0.65186868     0.09400
H785        H  0.00895524  0.86756417  0.64781451     0.08500
N786        N  0.01296839  0.78577214  0.61905265    -0.35300
N787        N  0.00015197  0.78392088  0.60928126    -0.27500
C788        C  0.99949740  0.76826546  0.60417715    -0.02800
C789        C  0.01249057  0.75981511  0.61110552     0.05900
C790        C  0.02080978  0.77132934  0.62043307     0.03900
H791        H  0.99001198  0.76329046  0.59632516     0.09100
H792        H  0.03140475  0.76922622  0.62814507     0.07900
N793        N  0.97290522  0.03222320  0.38739916    -0.26500
N794        N  0.96936563  0.02754309  0.40251004    -0.34400
C795        C  0.97845493  0.03637711  0.41311379     0.01800
C796        C  0.98813536  0.04711900  0.40417974     0.07900
C797        C  0.98427528  0.04411125  0.38793441    -0.05200
H798        H  0.97784125  0.03527137  0.42633399     0.08500
H799        H  0.98899760  0.05046857  0.37728871     0.09700
Cu800      Cu  0.95171751  0.00990780  0.40772157     0.44200
Cu801      Cu  0.96160366  0.02296229  0.36674779     0.42000
Cu802      Cu  0.93008564  0.99234830  0.37264434     0.43900
N803        N  0.93356519  0.99209334  0.40955967    -0.33900
N804        N  0.92585558  0.98553043  0.39684665    -0.28100
C805        C  0.91509471  0.97427102  0.40231969    -0.04200
C806        C  0.91600664  0.97383976  0.41927435     0.08000
C807        C  0.92781519  0.98528327  0.42343785     0.01800
H808        H  0.90709113  0.96706171  0.39455218     0.09400
H809        H  0.93198299  0.98836965  0.43567150     0.08500
N810        N  0.93712307  0.00119638  0.34980490    -0.35300
N811        N  0.94874563  0.01230072  0.34775328    -0.27500
C812        C  0.95099299  0.01489082  0.33163023    -0.02800
C813        C  0.94026111  0.00493611  0.32309231     0.05900
C814        C  0.93161258  0.99644823  0.33497617     0.03900
H815        H  0.95998695  0.02318613  0.32651383     0.09100
H816        H  0.92237823  0.98713309  0.33297332     0.07900
N817        N  0.07185630  0.14284560  0.48677435    -0.26500
N818        N  0.07532019  0.12925839  0.47864684    -0.34400
C819        C  0.08571000  0.12019037  0.48759375     0.01800
C820        C  0.08886739  0.12834731  0.50215546     0.07900
C821        C  0.07991557  0.14273072  0.50119729    -0.05200
H822        H  0.09031381  0.10830807  0.48392518     0.08500
H823        H  0.07895986  0.15220086  0.51045187     0.09700
Cu824      Cu  0.06424671  0.12232066  0.45690268     0.44200
Cu825      Cu  0.05593090  0.16052986  0.47801735     0.42000
Cu826      Cu  0.03486609  0.15023320  0.44005698     0.43900
N827        N  0.04746114  0.11566691  0.43910564    -0.33900
N828        N  0.03647483  0.12591051  0.43306449    -0.28100
C829        C  0.02543026  0.11738730  0.42427212    -0.04200
C830        C  0.02965643  0.10098802  0.42487027     0.08000
C831        C  0.04372660  0.10034495  0.43430352     0.01800
H832        H  0.01440391  0.12254841  0.41900631     0.09400
H833        H  0.04985779  0.08942555  0.43864375     0.08500
N834        N  0.03325235  0.17280398  0.45154640    -0.35300
N835        N  0.04054885  0.17641296  0.46559151    -0.27500
C836        C  0.03684483  0.19190990  0.46977199    -0.02800
C837        C  0.02679905  0.19840280  0.45772606     0.05900
C838        C  0.02478355  0.18592930  0.44637618     0.03900
H839        H  0.04130220  0.19803387  0.48068601     0.09100
H840        H  0.01790088  0.18644228  0.43502785     0.07900
N841        N  0.17393056  0.04857797  0.60690049    -0.26500
N842        N  0.15846538  0.05195726  0.60345187    -0.34400
C843        C  0.14867020  0.04186800  0.61201646     0.01800
C844        C  0.15839299  0.03168748  0.62148139     0.07900
C845        C  0.17436263  0.03633752  0.61793516    -0.05200
H846        H  0.13543196  0.04178387  0.61117542     0.08500
H847        H  0.18549697  0.03113941  0.62292202     0.09700
Cu848      Cu  0.15120137  0.06979105  0.58702935     0.44200
Cu849      Cu  0.19366875  0.06008265  0.59561293     0.42000
Cu850      Cu  0.18305262  0.08989051  0.56411291     0.43900
N851        N  0.14662919  0.08679411  0.56885723    -0.33900
N852        N  0.15826022  0.09385300  0.56007846    -0.28100
C853        C  0.15123897  0.10314166  0.54840749    -0.04200
C854        C  0.13435577  0.10193710  0.54998682     0.08000
C855        C  0.13191930  0.09153032  0.56316956     0.01800
H856        H  0.15793149  0.10986707  0.53913801     0.09400
H857        H  0.12031465  0.08738000  0.56806638     0.08500
N858        N  0.20690412  0.08339703  0.57008951    -0.35300
N859        N  0.21082505  0.07243007  0.58137329    -0.27500
C860        C  0.22721383  0.07044694  0.58143970    -0.02800
C861        C  0.23388615  0.08073441  0.56970938     0.05900
C862        C  0.22066987  0.08876103  0.56278823     0.03900
H863        H  0.23375467  0.06195420  0.58924421     0.09100
H864        H  0.22099659  0.09747702  0.55279709     0.07900
N865        N  0.64532323  0.41064807  0.51467770    -0.26500
N866        N  0.63377174  0.41797661  0.50598819    -0.34400
C867        C  0.61923742  0.41560572  0.51342443     0.01800
C868        C  0.62183386  0.40635892  0.52743963     0.07900
C869        C  0.63850630  0.40342564  0.52781351    -0.05200
H870        H  0.60765969  0.42035137  0.50902589     0.08500
H871        H  0.64520193  0.39646948  0.53691045     0.09700
Cu872      Cu  0.63845195  0.43091088  0.48450501     0.44200
Cu873      Cu  0.66981873  0.41067162  0.50850104     0.42000
Cu874      Cu  0.68091253  0.43116553  0.47099799     0.43900
N875        N  0.64679500  0.44353744  0.46396646    -0.33900
N876        N  0.66230069  0.44374137  0.45920807    -0.28100
C877        C  0.66384700  0.45376145  0.44620771    -0.04200
C878        C  0.64857104  0.46007296  0.44253766     0.08000
C879        C  0.63803555  0.45333371  0.45399721     0.01800
H880        H  0.67529019  0.45647351  0.44006980     0.09400
H881        H  0.62506613  0.45578078  0.45530634     0.08500
N882        N  0.69760388  0.41930872  0.48597310    -0.35300
N883        N  0.69352448  0.41208623  0.49988762    -0.27500
C884        C  0.70714752  0.40666659  0.50737225    -0.02800
C885        C  0.72047682  0.41063366  0.49768034     0.05900
C886        C  0.71396230  0.41859213  0.48416659     0.03900
H887        H  0.70736906  0.40079546  0.51927237     0.09100
H888        H  0.72064003  0.42388462  0.47399793     0.07900
N889        N  0.57838322  0.57247612  0.36423862    -0.26500
N890        N  0.58422407  0.56902846  0.37895744    -0.34400
C891        C  0.57706014  0.57882780  0.39008981     0.01800
C892        C  0.56626873  0.58912331  0.38200495     0.07900
C893        C  0.56746521  0.58475156  0.36558631    -0.05200
H894        H  0.57934649  0.57828286  0.40316329     0.08500
H895        H  0.56085187  0.59003493  0.35536949     0.09700
Cu896      Cu  0.60134710  0.55092968  0.38330808     0.44200
Cu897      Cu  0.58515549  0.55966493  0.34331346     0.42000
Cu898      Cu  0.61700090  0.52863183  0.34822569     0.43900
N899        N  0.61674760  0.53095520  0.38519012    -0.33900
N900        N  0.62235714  0.52258221  0.37246937    -0.28100
C901        C  0.63038447  0.50928116  0.37802267    -0.04200
C902        C  0.62984185  0.50941852  0.39502257     0.08000
C903        C  0.62114465  0.52333880  0.39912166     0.01800
H904        H  0.63565283  0.49988445  0.37027507     0.09400
H905        H  0.61750262  0.52716727  0.41130903     0.08500
N906        N  0.60623310  0.53465285  0.32584997    -0.35300
N907        N  0.59407104  0.54523984  0.32432834    -0.27500
C908        C  0.58855065  0.54489193  0.30878078    -0.02800
C909        C  0.59779466  0.53372405  0.29989458     0.05900
C910        C  0.60897744  0.52756207  0.31117791     0.03900
H911        H  0.57822703  0.55196266  0.30440764     0.09100
H912        H  0.61823906  0.51833576  0.30900573     0.07900
N913        N  0.45398884  0.66931358  0.45605864    -0.26500
N914        N  0.45832213  0.65437756  0.45152898    -0.34400
C915        C  0.44677242  0.64370243  0.45636553     0.01800
C916        C  0.43449034  0.65228952  0.46428785     0.07900
C917        C  0.43944519  0.66853346  0.46378827    -0.05200
H918        H  0.44758480  0.63056674  0.45477143     0.08500
H919        H  0.43318368  0.67896688  0.46906361     0.09700
Cu920      Cu  0.48000399  0.64876061  0.43974512     0.44200
Cu921      Cu  0.46876468  0.68976446  0.45288743     0.42000
Cu922      Cu  0.50738408  0.68201633  0.43183905     0.43900
N923        N  0.50210588  0.64595638  0.42773627    -0.33900
N924        N  0.51218103  0.65825283  0.42470529    -0.28100
C925        C  0.52527467  0.65260690  0.41644896    -0.04200
C926        C  0.52331065  0.63592075  0.41418165     0.08000
C927        C  0.50849975  0.63211839  0.42152664     0.01800
H928        H  0.53534359  0.66013037  0.41221777     0.09400
H929        H  0.50275704  0.62018790  0.42224858     0.08500
N930        N  0.50033952  0.70462325  0.44067782    -0.35300
N931        N  0.48647892  0.70750251  0.44860139    -0.27500
C932        C  0.48596844  0.72343091  0.45284272    -0.02800
C933        C  0.50012122  0.73081122  0.44717904     0.05900
C934        C  0.50893293  0.71860475  0.43951761     0.03900
H935        H  0.47595361  0.72924171  0.45931667     0.09100
H936        H  0.52070921  0.71978767  0.43352582     0.07900
N937        N  0.33461495  0.57918124  0.55991690    -0.26500
N938        N  0.35026825  0.58287494  0.55798362    -0.34400
C939        C  0.35895337  0.57624506  0.57029838     0.01800
C940        C  0.34826867  0.56793538  0.58048672     0.07900
C941        C  0.33291225  0.57001812  0.57353981    -0.05200
H942        H  0.37213929  0.57706659  0.57152393     0.08500
H943        H  0.32141419  0.56506354  0.57791881     0.09700
Cu944      Cu  0.35925534  0.59606930  0.53833302     0.44200
Cu945      Cu  0.31673584  0.58613878  0.54325435     0.42000
Cu946      Cu  0.33057673  0.60813771  0.50674085     0.43900
N947        N  0.36577096  0.60924534  0.51771658    -0.33900
N948        N  0.35535033  0.61365434  0.50610065    -0.28100
C949        C  0.36352448  0.62194822  0.49442889    -0.04200
C950        C  0.37984021  0.62281461  0.49899861     0.08000
C951        C  0.38082810  0.61463127  0.51379986     0.01800
H952        H  0.35799669  0.62702692  0.48348393     0.09400
H953        H  0.39170946  0.61263172  0.52113165     0.08500
N954        N  0.30667903  0.60042111  0.51047778    -0.35300
N955        N  0.30171339  0.59257760  0.52378097    -0.27500
C956        C  0.28587640  0.58846482  0.52195810    -0.02800
C957        C  0.28062483  0.59390133  0.50677354     0.05900
C958        C  0.29410013  0.60149206  0.49983543     0.03900
H959        H  0.27884189  0.58154304  0.53082182     0.09100
H960        H  0.29489934  0.60680260  0.48769864     0.07900
N961        N  0.50073381  0.38279388  0.62202878    -0.26500
N962        N  0.51161243  0.39445292  0.61914846    -0.34400
C963        C  0.50524051  0.40896309  0.62361077     0.01800
C964        C  0.48950608  0.40638657  0.62943924     0.07900
C965        C  0.48707586  0.38962385  0.62824051    -0.05200
H966        H  0.51156406  0.42056496  0.62251301     0.08500
H967        H  0.47610894  0.38288597  0.63143570     0.09700
Cu968      Cu  0.53399730  0.39056277  0.60784085     0.44200
Cu969      Cu  0.50493990  0.35811902  0.61759654     0.42000
Cu970      Cu  0.54266191  0.34882052  0.59643538     0.43900
N971        N  0.55324318  0.38391890  0.59268566    -0.33900
N972        N  0.55616742  0.36861211  0.58825513    -0.28100
C973        C  0.56833701  0.36842380  0.57714973    -0.04200
C974        C  0.57331295  0.38438070  0.57449895     0.08000
C975        C  0.56354105  0.39390462  0.58456187     0.01800
H976        H  0.57292911  0.35752559  0.57113906     0.09400
H977        H  0.56345136  0.40713530  0.58539113     0.08500
N978        N  0.52678759  0.33112967  0.60517617    -0.35300
N979        N  0.51297046  0.33444787  0.61298283    -0.27500
C980        C  0.50555098  0.32028002  0.61701153    -0.02800
C981        C  0.51515957  0.30751487  0.61135716     0.05900
C982        C  0.52849352  0.31480895  0.60390861     0.03900
H983        H  0.49394749  0.31934474  0.62337201     0.09100
H984        H  0.53866117  0.30870542  0.59796412     0.07900
N985        N  0.43283093  0.47519803  0.66866028    -0.26500
N986        N  0.42511226  0.47523932  0.65438583    -0.34400
C987        C  0.43181844  0.46380475  0.64458333     0.01800
C988        C  0.44437928  0.45621419  0.65309582     0.07900
C989        C  0.44465644  0.46373229  0.66833066    -0.05200
H990        H  0.42795443  0.46133089  0.63211347     0.08500
H991        H  0.45305028  0.46128498  0.67832106     0.09700
Cu992      Cu  0.40636583  0.49134621  0.64858523     0.44200
Cu993      Cu  0.42715367  0.49096078  0.68775505     0.42000
Cu994      Cu  0.39319161  0.51883794  0.68076669     0.43900
N995        N  0.38910156  0.50965183  0.64522393    -0.33900
N996        N  0.38408639  0.51955049  0.65704832    -0.28100
C997        C  0.37395120  0.53084338  0.65063262    -0.04200
C998        C  0.37265039  0.52803099  0.63390652     0.08000
C999        C  0.38237778  0.51444865  0.63095234     0.01800
H1000       H  0.36857549  0.54082908  0.65751536     0.09400
H1001       H  0.38512969  0.50903573  0.61913765     0.08500
N1002       N  0.40593692  0.51726143  0.70270078    -0.35300
N1003       N  0.41845449  0.50727434  0.70516433    -0.27500
C1004       C  0.42372188  0.50898011  0.72071260    -0.02800
C1005       C  0.41403321  0.52056550  0.72840100     0.05900
C1006       C  0.40290106  0.52558360  0.71662124     0.03900
H1007       H  0.43348819  0.50187561  0.72618957     0.09100
H1008       H  0.39309439  0.53437343  0.71815180     0.07900
N1009       N  0.59359452  0.07293393  0.67719488    -0.26500
N1010       N  0.60424201  0.07369403  0.66500661    -0.34400
C1011       C  0.59994819  0.08600084  0.65490406     0.01800
C1012       C  0.58578903  0.09325307  0.66095195     0.07900
C1013       C  0.58215133  0.08455865  0.67508656    -0.05200
H1014       H  0.60651495  0.08921877  0.64383452     0.08500
H1015       H  0.57175317  0.08633283  0.68313255     0.09700
Cu1016     Cu  0.62265931  0.05648156  0.66173486     0.44200
Cu1017     Cu  0.59520756  0.05646703  0.69641442     0.42000
Cu1018     Cu  0.62598282  0.02538278  0.69390906     0.43900
N1019       N  0.63455091  0.03420308  0.65883225    -0.33900
N1020       N  0.63513666  0.02268440  0.67022227    -0.28100
C1021       C  0.64113970  0.00888028  0.66349031    -0.04200
C1022       C  0.64457840  0.01181098  0.64708649     0.08000
C1023       C  0.64035809  0.02807263  0.64464780     0.01800
H1024       H  0.64209537  0.99730053  0.66986405     0.09400
H1025       H  0.64072304  0.03477078  0.63320395     0.08500
N1026       N  0.61308834  0.03040293  0.71535374    -0.35300
N1027       N  0.60128791  0.04145993  0.71593588    -0.27500
C1028       C  0.59490610  0.04179339  0.73113125    -0.02800
C1029       C  0.60315961  0.03049859  0.74074388     0.05900
C1030       C  0.61463178  0.02348427  0.73028088     0.03900
H1031       H  0.58498927  0.04974375  0.73490616     0.09100
H1032       H  0.62353162  0.01414402  0.73331445     0.07900
N1033       N  0.52801419  0.16475561  0.62741304    -0.26500
N1034       N  0.51994247  0.15193329  0.62163117    -0.34400
C1035       C  0.52831993  0.13823160  0.62514153     0.01800
C1036       C  0.54238299  0.14255148  0.63355421     0.07900
C1037       C  0.54180447  0.15948468  0.63483464    -0.05200
H1038       H  0.52433050  0.12597445  0.62200435     0.08500
H1039       H  0.55072998  0.16736879  0.64070208     0.09700
Cu1040     Cu  0.49777415  0.15323387  0.60945990     0.44200
Cu1041     Cu  0.51965559  0.18868650  0.62466764     0.42000
Cu1042     Cu  0.48070605  0.19291681  0.60244412     0.43900
N1043       N  0.47568467  0.15683546  0.59762556    -0.33900
N1044       N  0.46931035  0.17146514  0.59497177    -0.28100
C1045       C  0.45497296  0.16968976  0.58698357    -0.04200
C1046       C  0.45222304  0.15311310  0.58454574     0.08000
C1047       C  0.46561980  0.14534671  0.59144026     0.01800
H1048       H  0.44710661  0.17970179  0.58330183     0.09400
H1049       H  0.46795117  0.13230481  0.59182316     0.08500
N1050       N  0.49470208  0.21242363  0.61081764    -0.35300
N1051       N  0.50869215  0.21098563  0.61893212    -0.27500
C1052       C  0.51475533  0.22605285  0.62185941    -0.02800
C1053       C  0.50411491  0.23746896  0.61521618     0.05900
C1054       C  0.49154020  0.22839016  0.60835204     0.03900
H1055       H  0.52634156  0.22849946  0.62785968     0.09100
H1056       H  0.48102937  0.23303267  0.60172048     0.07900
N1057       N  0.65994297  0.90018486  0.53782435    -0.26500
N1058       N  0.64877291  0.90847814  0.54612654    -0.34400
C1059       C  0.63396245  0.90572149  0.53943521     0.01800
C1060       C  0.63588800  0.89519404  0.52625057     0.07900
C1061       C  0.65253153  0.89191779  0.52559270    -0.05200
H1062       H  0.62269433  0.91139154  0.54353329     0.08500
H1063       H  0.65883021  0.88433773  0.51670327     0.09700
Cu1064     Cu  0.65437053  0.92445688  0.56504365     0.44200
Cu1065     Cu  0.68483238  0.90184205  0.54267444     0.42000
Cu1066     Cu  0.69717565  0.93596431  0.56866723     0.43900
N1067       N  0.66284049  0.94235600  0.58092757    -0.33900
N1068       N  0.67835148  0.94696923  0.58194607    -0.28100
C1069       C  0.67953878  0.95933854  0.59283398    -0.04200
C1070       C  0.66402892  0.96264257  0.59895037     0.08000
C1071       C  0.65377884  0.95158799  0.59114132     0.01800
H1072       H  0.69083356  0.96556774  0.59595415     0.09400
H1073       H  0.64065861  0.95039006  0.59269130     0.08500
N1074       N  0.71355850  0.92111191  0.55590527    -0.35300
N1075       N  0.70902292  0.90821730  0.54717280    -0.27500
C1076       C  0.72241980  0.90097858  0.54088534    -0.02800
C1077       C  0.73613017  0.90984269  0.54563051     0.05900
C1078       C  0.72998756  0.92253351  0.55517713     0.03900
H1079       H  0.72213784  0.89017275  0.53318635     0.09100
H1080       H  0.73691150  0.93229179  0.56092101     0.07900
N1081       N  0.37453512  0.10926739  0.54470045    -0.26500
N1082       N  0.38479546  0.10621255  0.53251915    -0.34400
C1083       C  0.39943095  0.11294781  0.53599111     0.01800
C1084       C  0.39835618  0.12062658  0.55109322     0.07900
C1085       C  0.38239940  0.11803670  0.55628392    -0.05200
H1086       H  0.41012389  0.11215270  0.52817472     0.08500
H1087       H  0.37689767  0.12226087  0.56760688     0.09700
Cu1088     Cu  0.37861078  0.09287215  0.51182225     0.44200
Cu1089     Cu  0.35031137  0.10145603  0.54481723     0.42000
Cu1090     Cu  0.33647341  0.07997028  0.50810523     0.43900
N1091       N  0.36989299  0.07879756  0.49257796    -0.33900
N1092       N  0.35444893  0.07411048  0.49109850    -0.28100
C1093       C  0.35300389  0.06447931  0.47775407    -0.04200
C1094       C  0.36830207  0.06304325  0.47052544     0.08000
C1095       C  0.37868950  0.07229259  0.48025493     0.01800
H1096       H  0.34173900  0.05865714  0.47383548     0.09400
H1097       H  0.39179770  0.07373368  0.47880353     0.08500
N1098       N  0.32145342  0.08553776  0.52787602    -0.35300
N1099       N  0.32652120  0.09307999  0.54133778    -0.27500
C1100       C  0.31391491  0.09424212  0.55192007    -0.02800
C1101       C  0.30025138  0.08709983  0.54477877     0.05900
C1102       C  0.30549598  0.08174995  0.52952550     0.03900
H1103       H  0.31469725  0.09971122  0.56400300     0.09100
H1104       H  0.29825773  0.07549350  0.52030980     0.07900
N1105       N  0.40163394  0.01171583  0.39433343    -0.26500
N1106       N  0.40680648  0.00194566  0.40617933    -0.34400
C1107       C  0.40136211  0.00761126  0.42066277     0.01800
C1108       C  0.39224771  0.02160782  0.41785454     0.07900
C1109       C  0.39264381  0.02383179  0.40099531    -0.05200
H1110       H  0.40434375  0.00226501  0.43244002     0.08500
H1111       H  0.38713405  0.03372503  0.39410671     0.09700
Cu1112     Cu  0.42221444  0.98220782  0.40260162     0.44200
Cu1113     Cu  0.40820308  0.00886811  0.36989188     0.42000
Cu1114     Cu  0.43837868  0.97717183  0.36193109     0.43900
N1115       N  0.44001220  0.96524176  0.39669000    -0.33900
N1116       N  0.44629716  0.96372656  0.38182751    -0.28100
C1117       C  0.45824367  0.95241719  0.38215338    -0.04200
C1118       C  0.45947426  0.94646749  0.39799993     0.08000
C1119       C  0.44769390  0.95484974  0.40688030     0.01800
H1120       H  0.46562345  0.94895897  0.37167481     0.09400
H1121       H  0.44499302  0.95360845  0.41982288     0.08500
N1122       N  0.42831028  0.99182637  0.34394856    -0.35300
N1123       N  0.41745909  0.00351214  0.34677916    -0.27500
C1124       C  0.41374641  0.01087717  0.33249652    -0.02800
C1125       C  0.42264172  0.00339730  0.32009202     0.05900
C1126       C  0.43169230  0.99134250  0.32782495     0.03900
H1127       H  0.40531022  0.02102460  0.33126619     0.09100
H1128       H  0.44011455  0.98280311  0.32216131     0.07900
N1129       N  0.51235405  0.87356074  0.43374415    -0.26500
N1130       N  0.52432774  0.88432493  0.43557736    -0.34400
C1131       C  0.51953540  0.89875832  0.42929947     0.01800
C1132       C  0.50373284  0.89700331  0.42334584     0.07900
C1133       C  0.49959211  0.88085699  0.42634711    -0.05200
H1134       H  0.52685955  0.90981282  0.42947073     0.08500
H1135       H  0.48797981  0.87495892  0.42379792     0.09700
Cu1136     Cu  0.54584261  0.87951595  0.44812592     0.44200
Cu1137     Cu  0.51359991  0.84961755  0.44166691     0.42000
Cu1138     Cu  0.54984087  0.83860304  0.46448059     0.43900
N1139       N  0.56421444  0.87258842  0.46419940    -0.33900
N1140       N  0.56548384  0.85768030  0.47038811    -0.28100
C1141       C  0.57778391  0.85744461  0.48136417    -0.04200
C1142       C  0.58457169  0.87295458  0.48211784     0.08000
C1143       C  0.57570073  0.88224710  0.47105630     0.01800
H1144       H  0.58128447  0.84686030  0.48853571     0.09400
H1145       H  0.57707605  0.89520663  0.46864086     0.08500
N1146       N  0.53227124  0.82189552  0.45701180    -0.35300
N1147       N  0.51886563  0.82600671  0.44889415    -0.27500
C1148       C  0.51014566  0.81243860  0.44558042    -0.02800
C1149       C  0.51851061  0.79911773  0.45186195     0.05900
C1150       C  0.53248217  0.80556499  0.45904061     0.03900
H1151       H  0.49866429  0.81228144  0.43892029     0.09100
H1152       H  0.54224335  0.79886225  0.46501165     0.07900
C1153       C  0.47115069  0.93399234  0.40422949    -0.04500
C1154       C  0.48036521  0.93707157  0.41861678    -0.01700
C1155       C  0.49094645  0.92497814  0.42491157     0.03300
C1156       C  0.49289869  0.90992126  0.41652948    -0.04500
C1157       C  0.48407986  0.90704931  0.40185838    -0.01700
C1158       C  0.47305039  0.91891240  0.39588556     0.03300
C1159       C  0.47935736  0.95286070  0.42678495     0.38000
C1160       C  0.48659236  0.89202840  0.39263255     0.38000
C1161       C  0.46323995  0.91527436  0.38145485     0.36400
C1162       C  0.49929244  0.92788302  0.44039519     0.36400
N1163       N  0.45540192  0.91233357  0.36996998    -0.38400
N1164       N  0.50589710  0.93021997  0.45276207    -0.38400
N1165       N  0.48860118  0.88008746  0.38522252    -0.37900
N1166       N  0.47863023  0.96544580  0.43331004    -0.37900
C1167       C  0.38493846  0.03249901  0.43054604    -0.04500
C1168       C  0.37516128  0.02576673  0.44319141    -0.01700
C1169       C  0.36933980  0.03579678  0.45603896     0.03300
C1170       C  0.37311946  0.05270026  0.45629149    -0.04500
C1171       C  0.38233458  0.05955396  0.44331553    -0.01700
C1172       C  0.38833497  0.04949822  0.43057147     0.03300
C1173       C  0.37095886  0.00848001  0.44298303     0.38000
C1174       C  0.38550929  0.07705209  0.44294327     0.38000
C1175       C  0.39868066  0.05662177  0.41796579     0.36400
C1176       C  0.36004857  0.02848917  0.46934212     0.36400
N1177       N  0.40694481  0.06235601  0.40795310    -0.38400
N1178       N  0.35263709  0.02261077  0.47992254    -0.38400
N1179       N  0.38801340  0.09100677  0.44261488    -0.37900
N1180       N  0.36762467  0.99469456  0.44285135    -0.37900
C1181       C  0.62286792  0.88935390  0.51486997    -0.04500
C1182       C  0.60854292  0.88193051  0.52119885    -0.01700
C1183       C  0.59600043  0.87667552  0.51050191     0.03300
C1184       C  0.59769549  0.87870370  0.49336302    -0.04500
C1185       C  0.61193896  0.88621965  0.48701243    -0.01700
C1186       C  0.62450628  0.89148287  0.49770993     0.03300
C1187       C  0.60682392  0.87928743  0.53873221     0.38000
C1188       C  0.61381573  0.88829500  0.46941615     0.38000
C1189       C  0.63889859  0.89950314  0.49100476     0.36400
C1190       C  0.58109359  0.86966324  0.51723546     0.36400
N1191       N  0.65036324  0.90587324  0.48559012    -0.38400
N1192       N  0.56919793  0.86410917  0.52261912    -0.38400
N1193       N  0.61528841  0.88997232  0.45538558    -0.37900
N1194       N  0.60542972  0.87716821  0.55270925    -0.37900
C1195       C  0.43805221  0.14522304  0.57619750    -0.04500
C1196       C  0.43357632  0.14996810  0.56012633    -0.01700
C1197       C  0.42042186  0.14212969  0.55204848     0.03300
C1198       C  0.41169626  0.12939536  0.55991479    -0.04500
C1199       C  0.41605656  0.12477047  0.57604903    -0.01700
C1200       C  0.42915897  0.13265837  0.58415820     0.03300
C1201       C  0.44288041  0.16249824  0.55159372     0.38000
C1202       C  0.40744572  0.11149411  0.58416777     0.38000
C1203       C  0.43328368  0.12797231  0.60084086     0.36400
C1204       C  0.41567881  0.14743994  0.53572384     0.36400
N1205       N  0.43656772  0.12420321  0.61413552    -0.38400
N1206       N  0.41190169  0.15170364  0.52271426    -0.38400
N1207       N  0.40059647  0.10090824  0.59066387    -0.37900
N1208       N  0.45030340  0.17246628  0.54475654    -0.37900
C1209       C  0.55484012  0.13107570  0.64027074    -0.04500
C1210       C  0.55870988  0.13121036  0.65716433    -0.01700
C1211       C  0.56942776  0.11933734  0.66373605     0.03300
C1212       C  0.57591073  0.10679160  0.65359628    -0.04500
C1213       C  0.57227684  0.10691402  0.63658366    -0.01700
C1214       C  0.56207469  0.11919229  0.62994090     0.03300
C1215       C  0.55104285  0.14306030  0.66801223     0.38000
C1216       C  0.57824434  0.09398010  0.62590971     0.38000
C1217       C  0.55917192  0.11969500  0.61235785     0.36400
C1218       C  0.57388908  0.12024438  0.68096740     0.36400
N1219       N  0.55693469  0.12014748  0.59833167    -0.38400
N1220       N  0.57741966  0.12099938  0.69471426    -0.38400
N1221       N  0.58291536  0.08369091  0.61731128    -0.37900
N1222       N  0.54487979  0.15244293  0.67670262    -0.37900
C1223       C  0.64983356  0.99954118  0.63451740    -0.04500
C1224       C  0.64154984  0.99830725  0.61926138    -0.01700
C1225       C  0.64628182  0.98637092  0.60763022     0.03300
C1226       C  0.65927858  0.97545125  0.61110191    -0.04500
C1227       C  0.66755831  0.97666799  0.62630302    -0.01700
C1228       C  0.66290052  0.98865258  0.63791502     0.03300
C1229       C  0.62771446  0.00887239  0.61560970     0.38000
C1230       C  0.68052926  0.96518830  0.63032360     0.38000
C1231       C  0.67182553  0.98988248  0.65328754     0.36400
C1232       C  0.63787017  0.98556317  0.59192962     0.36400
N1233       N  0.67892857  0.99079520  0.66556158    -0.38400
N1234       N  0.63111311  0.98491261  0.57944376    -0.38400
N1235       N  0.69086173  0.95603125  0.63356188    -0.37900
N1236       N  0.61669381  0.01727014  0.61257289    -0.37900
C1237       C  0.50646999  0.25550104  0.61430589    -0.04500
C1238       C  0.50890208  0.26476669  0.62878497    -0.01700
C1239       C  0.51149189  0.28183851  0.62785341     0.03300
C1240       C  0.51173272  0.28972882  0.61245073    -0.04500
C1241       C  0.50913627  0.28053435  0.59799747    -0.01700
C1242       C  0.50649933  0.26349062  0.59890387     0.03300
C1243       C  0.50841630  0.25681048  0.64469312     0.38000
C1244       C  0.50896117  0.28867071  0.58216112     0.38000
C1245       C  0.50437478  0.25414446  0.58388152     0.36400
C1246       C  0.51438188  0.29122344  0.64272093     0.36400
N1247       N  0.50267821  0.24672459  0.57187921    -0.38400
N1248       N  0.51672219  0.29872382  0.65456379    -0.38400
N1249       N  0.50881008  0.29518104  0.56954774    -0.37900
N1250       N  0.50801638  0.25048450  0.65739499    -0.37900
C1251       C  0.47768604  0.41899267  0.63535483    -0.04500
C1252       C  0.46904817  0.41667685  0.65024075    -0.01700
C1253       C  0.45801974  0.42873352  0.65591542     0.03300
C1254       C  0.45570777  0.44334532  0.64692862    -0.04500
C1255       C  0.46433881  0.44569034  0.63207824    -0.01700
C1256       C  0.47509925  0.43350206  0.62621067     0.03300
C1257       C  0.47179968  0.40211029  0.66005887     0.38000
C1258       C  0.46260999  0.46090659  0.62303357     0.38000
C1259       C  0.48309300  0.43578706  0.61045932     0.36400
C1260       C  0.44874225  0.42586677  0.67084106     0.36400
N1261       N  0.48942394  0.43766171  0.59788584    -0.38400
N1262       N  0.44133262  0.42353423  0.68272607    -0.38400
N1263       N  0.46127788  0.47304572  0.61582860    -0.37900
N1264       N  0.47395224  0.39049739  0.66790734    -0.37900
C1265       C  0.35282304  0.55809086  0.59510550    -0.04500
C1266       C  0.36207522  0.56532941  0.60785581    -0.01700
C1267       C  0.36813153  0.55565948  0.62084162     0.03300
C1268       C  0.36482987  0.53863244  0.62127518    -0.04500
C1269       C  0.35485024  0.53157356  0.60893842    -0.01700
C1270       C  0.34892517  0.54124449  0.59587262     0.03300
C1271       C  0.36534863  0.58281666  0.60765141     0.38000
C1272       C  0.35058094  0.51432674  0.60969350     0.38000
C1273       C  0.33948250  0.53363441  0.58281938     0.36400
C1274       C  0.37844312  0.56322301  0.63324827     0.36400
N1275       N  0.33196956  0.52754991  0.57240292    -0.38400
N1276       N  0.38664351  0.56933600  0.64311480    -0.38400
N1277       N  0.34715386  0.50057756  0.61028066    -0.37900
N1278       N  0.36794085  0.59675869  0.60750140    -0.37900
C1279       C  0.50469804  0.74826561  0.44842163    -0.04500
C1280       C  0.50933464  0.75496775  0.46368937    -0.01700
C1281       C  0.51367997  0.77163831  0.46486645     0.03300
C1282       C  0.51378424  0.78159731  0.45066501    -0.04500
C1283       C  0.50943218  0.77472585  0.43530363    -0.01700
C1284       C  0.50476315  0.75814181  0.43423700     0.03300
C1285       C  0.51012386  0.74456693  0.47810211     0.38000
C1286       C  0.51030790  0.78448455  0.42044686     0.38000
C1287       C  0.49986324  0.75124850  0.41854067     0.36400
C1288       C  0.51758595  0.77859196  0.48080357     0.36400
N1289       N  0.49592392  0.74573737  0.40604476    -0.38400
N1290       N  0.52067328  0.78413592  0.49352318    -0.38400
N1291       N  0.51102599  0.79220966  0.40856246    -0.37900
N1292       N  0.51089121  0.73624230  0.48956692    -0.37900
C1293       C  0.42009206  0.64520118  0.47296271    -0.04500
C1294       C  0.41014484  0.63330957  0.46512298    -0.01700
C1295       C  0.39701479  0.62597342  0.47364769     0.03300
C1296       C  0.39349042  0.63069386  0.48994727    -0.04500
C1297       C  0.40328044  0.64267643  0.49773981    -0.01700
C1298       C  0.41663777  0.64975686  0.48937482     0.03300
C1299       C  0.41323670  0.62867310  0.44819558     0.38000
C1300       C  0.39950801  0.64792142  0.51435231     0.38000
C1301       C  0.42725545  0.66113010  0.49804577     0.36400
C1302       C  0.38758763  0.61302122  0.46585892     0.36400
N1303       N  0.43572948  0.67015068  0.50501639    -0.38400
N1304       N  0.38013074  0.60262288  0.45969896    -0.38400
N1305       N  0.39651892  0.65213095  0.52759116    -0.37900
N1306       N  0.41566677  0.62489369  0.43471277    -0.37900
C1307       C  0.55541383  0.60171055  0.38959112    -0.04500
C1308       C  0.53860963  0.60258503  0.38531329    -0.01700
C1309       C  0.52827753  0.61412141  0.39299464     0.03300
C1310       C  0.53447105  0.62451895  0.40541838    -0.04500
C1311       C  0.55126774  0.62381340  0.40958181    -0.01700
C1312       C  0.56173383  0.61264321  0.40154350     0.03300
C1313       C  0.53165070  0.59123042  0.37348395     0.38000
C1314       C  0.55775553  0.63418671  0.42254632     0.38000
C1315       C  0.57911476  0.61274057  0.40538629     0.36400
C1316       C  0.51131780  0.61556432  0.38775743     0.36400
N1317       N  0.59296714  0.61287227  0.40847997    -0.38400
N1318       N  0.49781655  0.61678428  0.38355013    -0.38400
N1319       N  0.56295827  0.64242276  0.43289362    -0.37900
N1320       N  0.52597941  0.58221524  0.36407880    -0.37900
C1321       C  0.64449032  0.47243006  0.42984183    -0.04500
C1322       C  0.63346950  0.46847116  0.41706887    -0.01700
C1323       C  0.62889980  0.48046224  0.40547706     0.03300
C1324       C  0.63540713  0.49648391  0.40654385    -0.04500
C1325       C  0.64665180  0.50035495  0.41916691    -0.01700
C1326       C  0.65126072  0.48834194  0.43071605     0.03300
C1327       C  0.62706284  0.45193931  0.41567372     0.38000
C1328       C  0.65356408  0.51670963  0.42023176     0.38000
C1329       C  0.66264660  0.49251053  0.44376826     0.36400
C1330       C  0.61694015  0.47647077  0.39289682     0.36400
N1331       N  0.67175350  0.49582740  0.45415919    -0.38400
N1332       N  0.60735386  0.47329841  0.38290088    -0.38400
N1333       N  0.65905731  0.52976084  0.42109070    -0.37900
N1334       N  0.62203023  0.43872635  0.41452160    -0.37900
C1335       C  0.60941317  0.40072620  0.53951188    -0.04500
C1336       C  0.61152008  0.40399367  0.55645021    -0.01700
C1337       C  0.59962678  0.39877150  0.56786338     0.03300
C1338       C  0.58563853  0.39013091  0.56246283    -0.04500
C1339       C  0.58353443  0.38681106  0.54556990    -0.01700
C1340       C  0.59543045  0.39198653  0.53414711     0.03300
C1341       C  0.62580452  0.41293012  0.56219721     0.38000
C1342       C  0.56889332  0.37844153  0.53985300     0.38000
C1343       C  0.59357432  0.38768818  0.51694930     0.36400
C1344       C  0.60196442  0.40198982  0.58523923     0.36400
N1345       N  0.59212853  0.38417477  0.50325210    -0.38400
N1346       N  0.60381014  0.40454807  0.59909837    -0.38400
N1347       N  0.55719224  0.37182313  0.53528072    -0.37900
N1348       N  0.63722442  0.41997824  0.56683904    -0.37900
C1349       C  0.25129114  0.08207214  0.56450294    -0.04500
C1350       C  0.25927631  0.09742591  0.56483457    -0.01700
C1351       C  0.27530890  0.09906818  0.55853737     0.03300
C1352       C  0.28357077  0.08530309  0.55198173    -0.04500
C1353       C  0.27575377  0.06982117  0.55216304    -0.01700
C1354       C  0.25968988  0.06821970  0.55839279     0.03300
C1355       C  0.25109551  0.11151762  0.57197872     0.38000
C1356       C  0.28430708  0.05541178  0.54618981     0.38000
C1357       C  0.25164676  0.05235918  0.55802673     0.36400
C1358       C  0.28299045  0.11510571  0.55824040     0.36400
N1359       N  0.24526511  0.03969234  0.55774517    -0.38400
N1360       N  0.28908226  0.12791481  0.55800452    -0.38400
N1361       N  0.29110937  0.04391584  0.54141089    -0.37900
N1362       N  0.24460310  0.12273159  0.57775820    -0.37900
C1363       C  0.12170067  0.10917287  0.53897543    -0.04500
C1364       C  0.12263911  0.12586924  0.53441072    -0.01700
C1365       C  0.11150472  0.13240319  0.52287713     0.03300
C1366       C  0.09922958  0.12232669  0.51591178    -0.04500
C1367       C  0.09748462  0.10601615  0.52145734    -0.01700
C1368       C  0.10883803  0.09935857  0.53265108     0.03300
C1369       C  0.13495273  0.13646060  0.54171234     0.38000
C1370       C  0.08371431  0.09612179  0.51597260     0.38000
C1371       C  0.10760690  0.08214548  0.53693248     0.36400
C1372       C  0.11305068  0.14939631  0.51790347     0.36400
N1373       N  0.10652453  0.06840494  0.54025985    -0.38400
N1374       N  0.11427067  0.16298740  0.51405357    -0.38400
N1375       N  0.07269111  0.08826625  0.51168058    -0.37900
N1376       N  0.14475950  0.14493328  0.54751990    -0.37900
C1377       C  0.99916733  0.06023897  0.41040338    -0.04500
C1378       C  0.99337196  0.07183939  0.42192535    -0.01700
C1379       C  0.00343598  0.08502275  0.42680276     0.03300
C1380       C  0.01927486  0.08686936  0.42002713    -0.04500
C1381       C  0.02526099  0.07506031  0.40888871    -0.01700
C1382       C  0.01528469  0.06173731  0.40415713     0.03300
C1383       C  0.97684462  0.07062236  0.42839959     0.38000
C1384       C  0.04155070  0.07684994  0.40195930     0.38000
C1385       C  0.02179312  0.04935150  0.39315338     0.36400
C1386       C  0.99757724  0.09649855  0.43910286     0.36400
N1387       N  0.02702303  0.03944477  0.38443161    -0.38400
N1388       N  0.99293128  0.10562559  0.44894034    -0.38400
N1389       N  0.05452787  0.07830406  0.39640512    -0.37900
N1390       N  0.96367868  0.06969588  0.43361256    -0.37900
C1391       C  0.06596913  0.88638516  0.67472066    -0.04500
C1392       C  0.06260699  0.87127860  0.68253516    -0.01700
C1393       C  0.05084572  0.86044391  0.67588346     0.03300
C1394       C  0.04260250  0.86440636  0.66114929    -0.04500
C1395       C  0.04601062  0.87946721  0.65329182    -0.01700
C1396       C  0.05743712  0.89048802  0.66015791     0.03300
C1397       C  0.07152282  0.86660387  0.69722359     0.38000
C1398       C  0.03814807  0.88353976  0.63783101     0.38000
C1399       C  0.05991172  0.90631054  0.65242100     0.36400
C1400       C  0.04688241  0.84541144  0.68452047     0.36400
N1401       N  0.06183613  0.91891494  0.64621698    -0.38400
N1402       N  0.04367043  0.83345980  0.69144386    -0.38400
N1403       N  0.03190887  0.88685048  0.62550792    -0.37900
N1404       N  0.07860676  0.86281764  0.70893571    -0.37900
C1405       C  0.14253549  0.99327805  0.65443699    -0.04500
C1406       C  0.13478978  0.00874329  0.65475727    -0.01700
C1407       C  0.14002246  0.02131159  0.64410794     0.03300
C1408       C  0.15283480  0.01841008  0.63273926    -0.04500
C1409       C  0.16023927  0.00272911  0.63213304    -0.01700
C1410       C  0.15524261  0.99030629  0.64307793     0.03300
C1411       C  0.12109002  0.01162609  0.66576322     0.38000
C1412       C  0.17262006  0.99908511  0.61987772     0.38000
C1413       C  0.16352411  0.97457573  0.64295292     0.36400
C1414       C  0.13243154  0.03735009  0.64526653     0.36400
N1415       N  0.17018050  0.96205793  0.64290662    -0.38400
N1416       N  0.12630684  0.05010297  0.64623817    -0.38400
N1417       N  0.18246398  0.99612083  0.61008595    -0.37900
N1418       N  0.11012731  0.01390100  0.67448920    -0.37900
C1419       C  0.78676309  0.90171729  0.53134237    -0.04500
C1420       C  0.78278564  0.90531739  0.54785240    -0.01700
C1421       C  0.76629652  0.90779056  0.55255489     0.03300
C1422       C  0.75355913  0.90687756  0.54075989    -0.04500
C1423       C  0.75758843  0.90327351  0.52421845    -0.01700
C1424       C  0.77405548  0.90060326  0.51958883     0.03300
C1425       C  0.79571424  0.90718353  0.55996455     0.38000
C1426       C  0.74493185  0.90295609  0.51168342     0.38000
C1427       C  0.77785508  0.89648790  0.50266723     0.36400
C1428       C  0.76252954  0.91103840  0.56966328     0.36400
N1429       N  0.78082047  0.89322436  0.48915830    -0.38400
N1430       N  0.75961804  0.91368428  0.58331894    -0.38400
N1431       N  0.73487648  0.90267966  0.50165067    -0.37900
N1432       N  0.80602282  0.90871402  0.56961920    -0.37900
C1433       C  0.89026594  0.94389793  0.45452143    -0.04500
C1434       C  0.89993701  0.93649076  0.44216535    -0.01700
C1435       C  0.90787668  0.94621788  0.43025339     0.03300
C1436       C  0.90639993  0.96344788  0.43074421    -0.04500
C1437       C  0.89618070  0.97080617  0.44264780    -0.01700
C1438       C  0.88802073  0.96106776  0.45440337     0.03300
C1439       C  0.90158349  0.91879658  0.44158326     0.38000
C1440       C  0.89395766  0.98844392  0.44271032     0.38000
C1441       C  0.87778656  0.96884007  0.46671084     0.36400
C1442       C  0.91802029  0.93849061  0.41783638     0.36400
N1443       N  0.86958001  0.97508752  0.47646803    -0.38400
N1444       N  0.92607608  0.93229040  0.40792379    -0.38400
N1445       N  0.89220651  0.00251368  0.44271274    -0.37900
N1446       N  0.90287477  0.90468283  0.44113152    -0.37900
C1447       C  0.91401131  0.86217065  0.55828245    -0.04500
C1448       C  0.91292768  0.86371442  0.57555805    -0.01700
C1449       C  0.92515654  0.85688711  0.58577200     0.03300
C1450       C  0.93854649  0.84830843  0.57885657    -0.04500
C1451       C  0.93968101  0.84685463  0.56158444    -0.01700
C1452       C  0.92742295  0.85359217  0.55138474     0.03300
C1453       C  0.89942996  0.87265209  0.58292569     0.38000
C1454       C  0.95380763  0.83896716  0.55416650     0.38000
C1455       C  0.92842394  0.85119333  0.53375008     0.36400
C1456       C  0.92375496  0.85851581  0.60346034     0.36400
N1457       N  0.92924093  0.84922455  0.51969837    -0.38400
N1458       N  0.92265126  0.85989750  0.61756149    -0.38400
N1459       N  0.96508014  0.83273195  0.54821428    -0.37900
N1460       N  0.88864686  0.87970752  0.58886648    -0.37900
C1461       C  0.42265864  0.01490607  0.26831048    -0.04500
C1462       C  0.40768266  0.01310738  0.27685082    -0.01700
C1463       C  0.40766782  0.00917925  0.29370440     0.03300
C1464       C  0.42263774  0.00748193  0.30230225    -0.04500
C1465       C  0.43762024  0.00962390  0.29381408    -0.01700
C1466       C  0.43762283  0.01319780  0.27688250     0.03300
C1467       C  0.39221804  0.01581811  0.26845621     0.38000
C1468       C  0.45312135  0.00852266  0.30250879     0.38000
C1469       C  0.45310516  0.01467605  0.26822666     0.36400
C1470       C  0.39218465  0.00628217  0.30199013     0.36400
N1471       N  0.46546440  0.01585809  0.26135247    -0.38400
N1472       N  0.37982387  0.00392515  0.30855251    -0.38400
N1473       N  0.46550989  0.00762753  0.30938778    -0.37900
N1474       N  0.37987130  0.01805351  0.26181707    -0.37900
C1475       C  0.46065771  0.09068313  0.16252126    -0.04500
C1476       C  0.46910769  0.08767737  0.14766115    -0.01700
C1477       C  0.47952025  0.09974766  0.14094367     0.03300
C1478       C  0.48188782  0.11485611  0.14917873    -0.04500
C1479       C  0.47329440  0.11789212  0.16397372    -0.01700
C1480       C  0.46260570  0.10595195  0.17048574     0.03300
C1481       C  0.46756430  0.07194294  0.13946324     0.38000
C1482       C  0.47582513  0.13306698  0.17293012     0.38000
C1483       C  0.45327923  0.10960971  0.18521551     0.36400
C1484       C  0.48746127  0.09664787  0.12530134     0.36400
N1485       N  0.44581469  0.11257472  0.19692883    -0.38400
N1486       N  0.49374364  0.09407622  0.11282268    -0.38400
N1487       N  0.47780339  0.14515228  0.18011653    -0.37900
N1488       N  0.46633466  0.05940947  0.13290802    -0.37900
C1489       C  0.59289353  0.02002592  0.79196480    -0.04500
C1490       C  0.59461532  0.03638654  0.78652552    -0.01700
C1491       C  0.59833795  0.03976455  0.76993884     0.03300
C1492       C  0.60016145  0.02683700  0.75846676    -0.04500
C1493       C  0.59860531  0.01046305  0.76393981    -0.01700
C1494       C  0.59504568  0.00708292  0.78057556     0.03300
C1495       C  0.59195970  0.04989176  0.79782724     0.38000
C1496       C  0.60011352  0.99698754  0.75239468     0.38000
C1497       C  0.59391491  0.99017696  0.78595840     0.36400
C1498       C  0.60063208  0.05664643  0.76484141     0.36400
N1499       N  0.59298807  0.97667359  0.79017950    -0.38400
N1500       N  0.60241996  0.07012833  0.76083066    -0.38400
N1501       N  0.60133760  0.98620309  0.74323400    -0.37900
N1502       N  0.58984432  0.06069420  0.80679929    -0.37900
C1503       C  0.63041234  0.05046896  0.95397107    -0.04500
C1504       C  0.61343334  0.04683469  0.95464259    -0.01700
C1505       C  0.60528051  0.04028796  0.94081616     0.03300
C1506       C  0.61410437  0.03651319  0.92633184    -0.04500
C1507       C  0.63117298  0.03954676  0.92585941    -0.01700
C1508       C  0.63921867  0.04673489  0.93945420     0.03300
C1509       C  0.60430618  0.04919905  0.96976614     0.38000
C1510       C  0.64069145  0.03471673  0.91160506     0.38000
C1511       C  0.65653561  0.05060077  0.93819325     0.36400
C1512       C  0.58765106  0.03787078  0.94149577     0.36400
N1513       N  0.67036071  0.05360930  0.93708446    -0.38400
N1514       N  0.57360010  0.03597198  0.94214405    -0.38400
N1515       N  0.64831051  0.03080862  0.90027494    -0.37900
N1516       N  0.59697458  0.05101965  0.98179578    -0.37900
C1517       C  0.61893269  0.12945844  0.06145398    -0.04500
C1518       C  0.61855375  0.12525209  0.07831602    -0.01700
C1519       C  0.60671280  0.13226017  0.08882608     0.03300
C1520       C  0.59501995  0.14341663  0.08261444    -0.04500
C1521       C  0.59565272  0.14795683  0.06587542    -0.01700
C1522       C  0.60761273  0.14111955  0.05539859     0.03300
C1523       C  0.62977528  0.11310084  0.08483900     0.38000
C1524       C  0.58348482  0.15903306  0.05911877     0.38000
C1525       C  0.60824738  0.14622107  0.03834090     0.36400
C1526       C  0.60662276  0.12797246  0.10611810     0.36400
N1527       N  0.60867478  0.15029227  0.02474078    -0.38400
N1528       N  0.60657197  0.12451614  0.11989461    -0.38400
N1529       N  0.57378187  0.16783627  0.05368450    -0.37900
N1530       N  0.63870118  0.10342558  0.09011748    -0.37900
C1531       C  0.50078839  0.92378941  0.89378358    -0.04500
C1532       C  0.51723418  0.92319122  0.89925913    -0.01700
C1533       C  0.52856987  0.93514489  0.89409908     0.03300
C1534       C  0.52343484  0.94827115  0.88401297    -0.04500
C1535       C  0.50691301  0.94906214  0.87880774    -0.01700
C1536       C  0.49569365  0.93674990  0.88349836     0.03300
C1537       C  0.52242446  0.91072741  0.91085373     0.38000
C1538       C  0.50123498  0.96288231  0.86917863     0.38000
C1539       C  0.47894239  0.93731588  0.87751789     0.36400
C1540       C  0.54564208  0.93363468  0.89893279     0.36400
N1541       N  0.46559350  0.93775861  0.87271092    -0.38400
N1542       N  0.55924227  0.93236578  0.90279110    -0.38400
N1543       N  0.49666574  0.97394081  0.86156852    -0.37900
N1544       N  0.52657872  0.90087043  0.92017070    -0.37900
C1545       C  0.37601439  0.98852191  0.14403205    -0.04500
C1546       C  0.36236711  0.99504298  0.13558221    -0.01700
C1547       C  0.35411948  0.98555200  0.12367062     0.03300
C1548       C  0.35963539  0.96956605  0.11998644    -0.04500
C1549       C  0.37299851  0.96289261  0.12879692    -0.01700
C1550       C  0.38114144  0.97232421  0.14078126     0.03300
C1551       C  0.35679274  0.01154932  0.13915300     0.38000
C1552       C  0.37840243  0.94624747  0.12557736     0.38000
C1553       C  0.39530301  0.96556568  0.14917747     0.36400
C1554       C  0.34040527  0.99253575  0.11475224     0.36400
N1555       N  0.40660452  0.96013127  0.15581779    -0.38400
N1556       N  0.32945840  0.99815068  0.10768096    -0.38400
N1557       N  0.38273649  0.93300221  0.12294560    -0.37900
N1558       N  0.35239965  0.02473195  0.14199302    -0.37900
C1559       C  0.38173124  0.90469322  0.00520726    -0.04500
C1560       C  0.39512733  0.91488877  0.00088247    -0.01700
C1561       C  0.40679154  0.90955824  0.98926075     0.03300
C1562       C  0.40484527  0.89430329  0.98125060    -0.04500
C1563       C  0.39124439  0.88432223  0.98519427    -0.01700
C1564       C  0.37994814  0.88931352  0.99730621     0.03300
C1565       C  0.39684677  0.93111410  0.00801112     0.38000
C1566       C  0.38858392  0.86897414  0.97655402     0.38000
C1567       C  0.36686474  0.87818389  0.00194624     0.36400
C1568       C  0.42116341  0.91957881  0.98610324     0.36400
N1569       N  0.35646282  0.86923017  0.00554619    -0.38400
N1570       N  0.43263279  0.92757544  0.98367788    -0.38400
N1571       N  0.38641924  0.85673291  0.96969484    -0.37900
N1572       N  0.39833402  0.94405997  0.01364351    -0.37900
C1573       C  0.59018580  0.51942778  0.24899857    -0.04500
C1574       C  0.59349932  0.50745648  0.26109085    -0.01700
C1575       C  0.59592221  0.51206706  0.27764391     0.03300
C1576       C  0.59543679  0.52879596  0.28232117    -0.04500
C1577       C  0.59229550  0.54078341  0.27013959    -0.01700
C1578       C  0.58951134  0.53610851  0.25365823     0.03300
C1579       C  0.59482481  0.49031354  0.25651044     0.38000
C1580       C  0.59224829  0.55806670  0.27436471     0.38000
C1581       C  0.58537024  0.54853161  0.24161567     0.36400
C1582       C  0.59832340  0.49937257  0.28986882     0.36400
N1583       N  0.58202838  0.55847608  0.23206832    -0.38400
N1584       N  0.60024937  0.48916781  0.29953288    -0.38400
N1585       N  0.59213572  0.57186365  0.27767137    -0.37900
N1586       N  0.59587697  0.47663157  0.25291067    -0.37900
C1587       C  0.61256658  0.53716455  0.11609782    -0.04500
C1588       C  0.62926552  0.54164790  0.11512504    -0.01700
C1589       C  0.63484679  0.55175413  0.10224297     0.03300
C1590       C  0.62386780  0.55710438  0.08990137    -0.04500
C1591       C  0.60718466  0.55242072  0.09076248    -0.01700
C1592       C  0.60154114  0.54264561  0.10387699     0.03300
C1593       C  0.64088827  0.53541085  0.12707372     0.38000
C1594       C  0.59581379  0.55722636  0.07792847     0.38000
C1595       C  0.58424119  0.53860889  0.10496638     0.36400
C1596       C  0.65183627  0.55705737  0.10206402     0.36400
N1597       N  0.57043889  0.53541735  0.10581571    -0.38400
N1598       N  0.66537592  0.56131327  0.10194341    -0.38400
N1599       N  0.58670092  0.56102840  0.06772386    -0.37900
N1600       N  0.65021585  0.53038057  0.13651637    -0.37900
C1601       C  0.50133906  0.27625422  0.11118774    -0.04500
C1602       C  0.50207175  0.26901539  0.12696123    -0.01700
C1603       C  0.50640693  0.25236372  0.12872187     0.03300
C1604       C  0.51020552  0.24281171  0.11477206    -0.04500
C1605       C  0.50931458  0.24994547  0.09900598    -0.01700
C1606       C  0.50488922  0.26656879  0.09720629     0.03300
C1607       C  0.49801512  0.27855596  0.14144414     0.38000
C1608       C  0.51257136  0.24005659  0.08454590     0.38000
C1609       C  0.50450996  0.27376568  0.08093138     0.36400
C1610       C  0.50732051  0.24516461  0.14497856     0.36400
N1611       N  0.50420543  0.27944338  0.06792113    -0.38400
N1612       N  0.50802446  0.23942920  0.15794712    -0.38400
N1613       N  0.51513976  0.23214900  0.07302523    -0.37900
N1614       N  0.49483149  0.28615376  0.15301917    -0.37900
C1615       C  0.53834768  0.43333280  0.15720857    -0.04500
C1616       C  0.54630432  0.42007903  0.14938792    -0.01700
C1617       C  0.53715685  0.40661193  0.14351296     0.03300
C1618       C  0.51993352  0.40619923  0.14553864    -0.04500
C1619       C  0.51210391  0.41906466  0.15415484    -0.01700
C1620       C  0.52125041  0.43263211  0.15985183     0.03300
C1621       C  0.56398588  0.42027399  0.14736668     0.38000
C1622       C  0.49461073  0.41830231  0.15730659     0.38000
C1623       C  0.51289807  0.44625640  0.16766425     0.36400
C1624       C  0.54548965  0.39360940  0.13467755     0.36400
N1625       N  0.50621573  0.45715344  0.17382462    -0.38400
N1626       N  0.55218936  0.38326084  0.12764575    -0.38400
N1627       N  0.48066944  0.41768223  0.15987963    -0.37900
N1628       N  0.57808289  0.42042188  0.14575478    -0.37900
C1629       C  0.49605339  0.76405607  0.93215790    -0.04500
C1630       C  0.49014332  0.77127157  0.91750629    -0.01700
C1631       C  0.48446804  0.78758109  0.91751651     0.03300
C1632       C  0.48478671  0.79693950  0.93211453    -0.04500
C1633       C  0.49088929  0.78985487  0.94670849    -0.01700
C1634       C  0.49658884  0.77352936  0.94672218     0.03300
C1635       C  0.49028076  0.76212165  0.90220739     0.38000
C1636       C  0.49156883  0.79943068  0.96172488     0.38000
C1637       C  0.50264133  0.76646184  0.96189742     0.36400
C1638       C  0.47775071  0.79451382  0.90254878     0.36400
N1639       N  0.50755743  0.76092498  0.97401292    -0.38400
N1640       N  0.47237568  0.80000617  0.89061059    -0.38400
N1641       N  0.49207147  0.80702287  0.97372800    -0.37900
N1642       N  0.49035257  0.75486484  0.88998751    -0.37900
C1643       C  0.57490812  0.66148427  0.97458843    -0.04500
C1644       C  0.57126438  0.64692754  0.98326647    -0.01700
C1645       C  0.58347282  0.63906282  0.99262445     0.03300
C1646       C  0.59927520  0.64608968  0.99410503    -0.04500
C1647       C  0.60268475  0.66105564  0.98606559    -0.01700
C1648       C  0.59061981  0.66863667  0.97623197     0.03300
C1649       C  0.55479225  0.64015747  0.98296611     0.38000
C1650       C  0.61857594  0.66882375  0.98803229     0.38000
C1651       C  0.59464939  0.68351872  0.96738468     0.36400
C1652       C  0.57986964  0.62328016  0.99999705     0.36400
N1653       N  0.59790588  0.69539637  0.96035567    -0.38400
N1654       N  0.57693466  0.61066895  0.00577963    -0.38400
N1655       N  0.63124604  0.67503193  0.98958399    -0.37900
N1656       N  0.54166742  0.63475472  0.98280294    -0.37900
C1657       C  0.40387328  0.38609196  0.03023258    -0.04500
C1658       C  0.40223470  0.38932368  0.04723692    -0.01700
C1659       C  0.41409343  0.38354984  0.05844544     0.03300
C1660       C  0.42778705  0.37456379  0.05282130    -0.04500
C1661       C  0.42946384  0.37130152  0.03586869    -0.01700
C1662       C  0.41759990  0.37705833  0.02462177     0.03300
C1663       C  0.38873430  0.39921706  0.05326215     0.38000
C1664       C  0.44371764  0.36249621  0.02988590     0.38000
C1665       C  0.41951613  0.37347962  0.00727105     0.36400
C1666       C  0.41202038  0.38667474  0.07587076     0.36400
N1667       N  0.42114277  0.37066559  0.99343492    -0.38400
N1668       N  0.41036747  0.38918180  0.08976091    -0.38400
N1669       N  0.45509595  0.35549946  0.02510282    -0.37900
N1670       N  0.37799850  0.40711468  0.05812675    -0.37900
C1671       C  0.41558404  0.53241339  0.77999525    -0.04500
C1672       C  0.40090503  0.52667302  0.77277702    -0.01700
C1673       C  0.40031965  0.52309007  0.75586413     0.03300
C1674       C  0.41443050  0.52516984  0.74602321    -0.04500
C1675       C  0.42906000  0.53110508  0.75319144    -0.01700
C1676       C  0.42963919  0.53471799  0.77012522     0.03300
C1677       C  0.38625730  0.52466406  0.78269148     0.38000
C1678       C  0.44346253  0.53379904  0.74309040     0.38000
C1679       C  0.44489241  0.54024454  0.77746783     0.36400
C1680       C  0.38527691  0.51674516  0.74874969     0.36400
N1681       N  0.45707555  0.54461962  0.78330956    -0.38400
N1682       N  0.37325818  0.51171043  0.74310489    -0.38400
N1683       N  0.45494870  0.53597840  0.73504375    -0.37900
N1684       N  0.37458885  0.52301990  0.79060079    -0.37900
C1685       C  0.45087635  0.61157625  0.88249698    -0.04500
C1686       C  0.44486338  0.62246000  0.89456301    -0.01700
C1687       C  0.45498027  0.63504608  0.90077935     0.03300
C1688       C  0.47122082  0.63683457  0.89497445    -0.04500
C1689       C  0.47709898  0.62619390  0.88261430    -0.01700
C1690       C  0.46699186  0.61360420  0.87641581     0.03300
C1691       C  0.42814106  0.62088290  0.90043459     0.38000
C1692       C  0.49349833  0.62834011  0.87603066     0.38000
C1693       C  0.47347441  0.60239715  0.86418652     0.36400
C1694       C  0.44879263  0.64576125  0.91358398     0.36400
N1695       N  0.47867450  0.59349606  0.85441935    -0.38400
N1696       N  0.44383148  0.65431583  0.92377720    -0.38400
N1697       N  0.50656515  0.63003845  0.87076215    -0.37900
N1698       N  0.41480223  0.61965705  0.90511659    -0.37900
C1699       C  0.39098473  0.49230907  0.90616675    -0.04500
C1700       C  0.39666788  0.47595658  0.90534696    -0.01700
C1701       C  0.39011877  0.46391797  0.91590302     0.03300
C1702       C  0.37790232  0.46810730  0.92747684    -0.04500
C1703       C  0.37217645  0.48444096  0.92825812    -0.01700
C1704       C  0.37863650  0.49645457  0.91762092     0.03300
C1705       C  0.40958709  0.47151417  0.89393343     0.38000
C1706       C  0.35994325  0.48909463  0.94032248     0.38000
C1707       C  0.37216000  0.51300327  0.91818721     0.36400
C1708       C  0.39569207  0.44708508  0.91451775     0.36400
N1709       N  0.36697951  0.52619386  0.91864314    -0.38400
N1710       N  0.40012185  0.43366095  0.91339926    -0.38400
N1711       N  0.35017758  0.49286128  0.94991402    -0.37900
N1712       N  0.41988058  0.46790612  0.88484707    -0.37900
C1713       C  0.24155704  0.41265286  0.00621598    -0.04500
C1714       C  0.24858039  0.42782429  0.00174353    -0.01700
C1715       C  0.26534470  0.42878823  0.99750980     0.03300
C1716       C  0.27527199  0.41455574  0.99774334    -0.04500
C1717       C  0.26812058  0.39934026  0.00203129    -0.01700
C1718       C  0.25139539  0.39842682  0.00634004     0.03300
C1719       C  0.23848888  0.44245918  0.00124559     0.38000
C1720       C  0.27781088  0.38444062  0.00162621     0.38000
C1721       C  0.24447092  0.38287610  0.01149788     0.36400
C1722       C  0.27238885  0.44458510  0.99339369     0.36400
N1723       N  0.23896168  0.37049020  0.01566201    -0.38400
N1724       N  0.27792411  0.45721389  0.99007304    -0.38400
N1725       N  0.28549487  0.37252807  0.00132708    -0.37900
N1726       N  0.23045044  0.45413335  0.00085802    -0.37900
C1727       C  0.14057298  0.44855336  0.08865125    -0.04500
C1728       C  0.13257800  0.44150739  0.10231638    -0.01700
C1729       C  0.12591119  0.45159304  0.11468375     0.03300
C1730       C  0.12744120  0.46881948  0.11364865    -0.04500
C1731       C  0.13535042  0.47587121  0.09993672    -0.01700
C1732       C  0.14184796  0.46578740  0.08746962     0.03300
C1733       C  0.13141179  0.42383005  0.10385292     0.38000
C1734       C  0.13692469  0.49353866  0.09865128     0.38000
C1735       C  0.14926822  0.47324124  0.07311009     0.36400
C1736       C  0.11677862  0.44419551  0.12805439     0.36400
N1737       N  0.15514698  0.47920350  0.06164920    -0.38400
N1738       N  0.10942612  0.43829974  0.13866685    -0.38400
N1739       N  0.13813345  0.50762493  0.09756401    -0.37900
N1740       N  0.13045177  0.40974110  0.10512739    -0.37900
C1741       C  0.72255259  0.58893697  0.00519501    -0.04500
C1742       C  0.73449799  0.58698596  0.01766176    -0.01700
C1743       C  0.75113990  0.58483687  0.01352575     0.03300
C1744       C  0.75614416  0.58522507  0.99691670    -0.04500
C1745       C  0.74429197  0.58755592  0.98447468    -0.01700
C1746       C  0.72755271  0.58910883  0.98856628     0.03300
C1747       C  0.72985127  0.58763047  0.03485445     0.38000
C1748       C  0.74933289  0.58885808  0.96743932     0.38000
C1749       C  0.71545839  0.59027722  0.97554729     0.36400
C1750       C  0.76300462  0.58167438  0.02643743     0.36400
N1751       N  0.70583907  0.59113958  0.96513136    -0.38400
N1752       N  0.77243216  0.57912112  0.03674778    -0.38400
N1753       N  0.75334116  0.58998282  0.95385793    -0.37900
N1754       N  0.72624080  0.58813845  0.04858734    -0.37900
C1755       C  0.90942652  0.61376271  0.05117015    -0.04500
C1756       C  0.90966968  0.62062691  0.03522771    -0.01700
C1757       C  0.89773986  0.61599857  0.02357181     0.03300
C1758       C  0.88544575  0.60461709  0.02780879    -0.04500
C1759       C  0.88511805  0.59781663  0.04372050    -0.01700
C1760       C  0.89698712  0.60245543  0.05540746     0.03300
C1761       C  0.92240233  0.63215918  0.03061695     0.38000
C1762       C  0.87285970  0.58562452  0.04792510     0.38000
C1763       C  0.89601678  0.59595016  0.07195428     0.36400
C1764       C  0.89802050  0.62305513  0.00722973     0.36400
N1765       N  0.89519009  0.59077879  0.08515250    -0.38400
N1766       N  0.89824185  0.62867209  0.99419255    -0.38400
N1767       N  0.86313446  0.57584425  0.05124318    -0.37900
N1768       N  0.93250973  0.64140428  0.02692194    -0.37900
C1769       C  0.00909238  0.58056306  0.13637279    -0.04500
C1770       C  0.02584471  0.58400621  0.13363170    -0.01700
C1771       C  0.03796488  0.57287703  0.13887419     0.03300
C1772       C  0.03340584  0.55819497  0.14684232    -0.04500
C1773       C  0.01663257  0.55471908  0.14948697    -0.01700
C1774       C  0.00452318  0.56586117  0.14424188     0.03300
C1775       C  0.03062363  0.59875575  0.12491885     0.38000
C1776       C  0.01175087  0.53942594  0.15713140     0.38000
C1777       C  0.98734404  0.56228984  0.14718217     0.36400
C1778       C  0.05515288  0.57674893  0.13635197     0.36400
N1779       N  0.97364723  0.55941943  0.14952803    -0.38400
N1780       N  0.06884962  0.57986016  0.13432237    -0.38400
N1781       N  0.00786665  0.52722479  0.16322400    -0.37900
N1782       N  0.03443613  0.61048875  0.11792599    -0.37900
C1783       C  0.86676665  0.49545478  0.90833482    -0.04500
C1784       C  0.87045334  0.51220374  0.90590790    -0.01700
C1785       C  0.86427080  0.52411898  0.91678224     0.03300
C1786       C  0.85431526  0.51941571  0.93015453    -0.04500
C1787       C  0.85040277  0.50270849  0.93245101    -0.01700
C1788       C  0.85676639  0.49074357  0.92167311     0.03300
C1789       C  0.88115737  0.51720043  0.89258820     0.38000
C1790       C  0.84022640  0.49774608  0.94618003     0.38000
C1791       C  0.85293402  0.47358205  0.92427035     0.36400
C1792       C  0.86797254  0.54129690  0.91401496     0.36400
N1793       N  0.84991787  0.45989102  0.92639634    -0.38400
N1794       N  0.87093867  0.55498675  0.91181165    -0.38400
N1795       N  0.83207337  0.49379089  0.95710650    -0.37900
N1796       N  0.88969960  0.52120854  0.88198443    -0.37900
C1797       C  0.11641496  0.36480485  0.98672350    -0.04500
C1798       C  0.10621862  0.35223639  0.99286844    -0.01700
C1799       C  0.09407218  0.34512630  0.98276116     0.03300
C1800       C  0.09203083  0.35052792  0.96638630    -0.04500
C1801       C  0.10244822  0.36291907  0.96017923    -0.01700
C1802       C  0.11445821  0.37013547  0.97034490     0.03300
C1803       C  0.10827696  0.34651836  0.00960861     0.38000
C1804       C  0.10106803  0.36808795  0.94319037     0.38000
C1805       C  0.12425767  0.38361861  0.96412976     0.36400
C1806       C  0.08330796  0.33267605  0.98949572     0.36400
N1807       N  0.13199836  0.39443261  0.95919753    -0.38400
N1808       N  0.07475514  0.32273683  0.99490781    -0.38400
N1809       N  0.10000871  0.37221154  0.92964107    -0.37900
N1810       N  0.10989571  0.34197613  0.02296620    -0.37900
C1811       C  0.98086664  0.37442968  0.89476189    -0.04500
C1812       C  0.98532763  0.38694490  0.88366224    -0.01700
C1813       C  0.97359848  0.39851777  0.87840038     0.03300
C1814       C  0.95722457  0.39763770  0.88410522    -0.04500
C1815       C  0.95282590  0.38519168  0.89535311    -0.01700
C1816       C  0.96460135  0.37369976  0.90069077     0.03300
C1817       C  0.00195563  0.38779182  0.87738112     0.38000
C1818       C  0.93608880  0.38390531  0.90124478     0.38000
C1819       C  0.96007252  0.36145769  0.91277732     0.36400
C1820       C  0.97861906  0.41167842  0.86753629     0.36400
N1821       N  0.95650407  0.35171666  0.92245202    -0.38400
N1822       N  0.98263073  0.42217535  0.85888039    -0.38400
N1823       N  0.92277110  0.38283305  0.90602658    -0.37900
N1824       N  0.01520142  0.38852660  0.87234338    -0.37900
C1825       C  0.77116459  0.40411534  0.51124920    -0.04500
C1826       C  0.76018958  0.39077541  0.51201649    -0.01700
C1827       C  0.74373354  0.39277888  0.50712181     0.03300
C1828       C  0.73804118  0.40827527  0.50185291    -0.04500
C1829       C  0.74907374  0.42164022  0.50115717    -0.01700
C1830       C  0.76562057  0.41948687  0.50560445     0.03300
C1831       C  0.76566442  0.37513453  0.51845198     0.38000
C1832       C  0.74334557  0.43783204  0.49656463     0.38000
C1833       C  0.77701883  0.43306999  0.50408224     0.36400
C1834       C  0.73277815  0.37876109  0.50721321     0.36400
N1835       N  0.78610742  0.44388825  0.50280217    -0.38400
N1836       N  0.72407460  0.36755509  0.50725852    -0.38400
N1837       N  0.73880935  0.45076880  0.49295212    -0.37900
N1838       N  0.77000514  0.36269752  0.52369163    -0.37900
C1839       C  0.00865976  0.24758068  0.45101255    -0.04500
C1840       C  0.02517838  0.24498455  0.45550896    -0.01700
C1841       C  0.03102339  0.22896934  0.45824006     0.03300
C1842       C  0.02036503  0.21539235  0.45647950    -0.04500
C1843       C  0.00363566  0.21808739  0.45279065    -0.01700
C1844       C  0.99780225  0.23411177  0.45008486     0.03300
C1845       C  0.03616925  0.25883796  0.45755644     0.38000
C1846       C  0.99229510  0.20439491  0.45196182     0.38000
C1847       C  0.98071861  0.23660249  0.44575334     0.36400
C1848       C  0.04819282  0.22654321  0.46223380     0.36400
N1849       N  0.96707978  0.23857126  0.44235739    -0.38400
N1850       N  0.06188157  0.22467674  0.46548340    -0.38400
N1851       N  0.98321210  0.19351345  0.45127836    -0.37900
N1852       N  0.04494326  0.26986719  0.45922246    -0.37900
C1853       C  0.92140587  0.34836485  0.46671081    -0.04500
C1854       C  0.90694054  0.33945066  0.47012872    -0.01700
C1855       C  0.89482193  0.34610661  0.48055346     0.03300
C1856       C  0.89694926  0.36187521  0.48749685    -0.04500
C1857       C  0.91110505  0.37106973  0.48343036    -0.01700
C1858       C  0.92340352  0.36422487  0.47338350     0.03300
C1859       C  0.90440080  0.32344217  0.46275376     0.38000
C1860       C  0.91288833  0.38783790  0.48912321     0.38000
C1861       C  0.93846565  0.37328933  0.47061467     0.36400
C1862       C  0.88040996  0.33642702  0.48443319     0.36400
N1863       N  0.95048913  0.38053021  0.46852515    -0.38400
N1864       N  0.86893163  0.32863588  0.48741678    -0.38400
N1865       N  0.91431149  0.40122803  0.49360248    -0.37900
N1866       N  0.90239951  0.31068085  0.45686647    -0.37900
C1867       C  0.23246782  0.58475120  0.48700507    -0.04500
C1868       C  0.24235943  0.57157455  0.49229868    -0.01700
C1869       C  0.25833910  0.57454165  0.49815232     0.03300
C1870       C  0.26443560  0.59073194  0.49907621    -0.04500
C1871       C  0.25481825  0.60382220  0.49308718    -0.01700
C1872       C  0.23891237  0.60080486  0.48696327     0.03300
C1873       C  0.23592914  0.55498811  0.49235163     0.38000
C1874       C  0.26098854  0.62048137  0.49379997     0.38000
C1875       C  0.22924296  0.61418321  0.48036806     0.36400
C1876       C  0.26860645  0.56083849  0.50296278     0.36400
N1877       N  0.22156695  0.62481800  0.47498042    -0.38400
N1878       N  0.27680934  0.54991093  0.50674856    -0.38400
N1879       N  0.26587918  0.63378467  0.49437414    -0.37900
N1880       N  0.23083349  0.54175053  0.49240867    -0.37900
C1881       C  0.02138105  0.70758590  0.60761505    -0.04500
C1882       C  0.00578321  0.71362135  0.61227982    -0.01700
C1883       C  0.00308269  0.73061978  0.61383280     0.03300
C1884       C  0.01570501  0.74187832  0.61011312    -0.04500
C1885       C  0.03128121  0.73593131  0.60541305    -0.01700
C1886       C  0.03415144  0.71888493  0.60428494     0.03300
C1887       C  0.99220644  0.70244575  0.61498171     0.38000
C1888       C  0.04433920  0.74734140  0.60143760     0.38000
C1889       C  0.05044096  0.71306613  0.60013961     0.36400
C1890       C  0.98742214  0.73647317  0.61994287     0.36400
N1891       N  0.06345039  0.70847619  0.59682045    -0.38400
N1892       N  0.97498462  0.74114974  0.62491883    -0.38400
N1893       N  0.05478809  0.75640109  0.59826682    -0.37900
N1894       N  0.98131095  0.69361510  0.61713526    -0.37900
C1895       C  0.08146589  0.60073775  0.54963082    -0.04500
C1896       C  0.09652824  0.59431850  0.55524937    -0.01700
C1897       C  0.10788530  0.58773981  0.54399536     0.03300
C1898       C  0.10437848  0.58774198  0.52699863    -0.04500
C1899       C  0.08908397  0.59372110  0.52143154    -0.01700
C1900       C  0.07769940  0.60025542  0.53271968     0.03300
C1901       C  0.10058584  0.59490571  0.57259218     0.38000
C1902       C  0.08511972  0.59346299  0.50406596     0.38000
C1903       C  0.06195132  0.60619825  0.52696316     0.36400
C1904       C  0.12294910  0.58042527  0.55000715     0.36400
N1905       N  0.04937356  0.61091109  0.52239115    -0.38400
N1906       N  0.13491157  0.57449496  0.55480375    -0.38400
N1907       N  0.08188379  0.59319179  0.49022986    -0.37900
N1908       N  0.10385373  0.59540763  0.58641370    -0.37900
C1909       C  0.08950066  0.47896521  0.24112407    -0.04500
C1910       C  0.08718824  0.48927758  0.25491056    -0.01700
C1911       C  0.08838124  0.48284009  0.27091635     0.03300
C1912       C  0.09223762  0.46613799  0.27329826    -0.04500
C1913       C  0.09420578  0.45575938  0.25956239    -0.01700
C1914       C  0.09251915  0.46207000  0.24355740     0.03300
C1915       C  0.08397306  0.50663005  0.25277024     0.38000
C1916       C  0.09856625  0.43867153  0.26182891     0.38000
C1917       C  0.09328792  0.45097376  0.22963625     0.36400
C1918       C  0.08523193  0.49338282  0.28493738     0.36400
N1919       N  0.09379530  0.44208542  0.21856281    -0.38400
N1920       N  0.08267379  0.50178185  0.29610651    -0.38400
N1921       N  0.10211712  0.42506245  0.26360728    -0.37900
N1922       N  0.08133735  0.52046699  0.25115527    -0.37900
C1923       C  0.04998261  0.38528047  0.37263192    -0.04500
C1924       C  0.04666571  0.37039019  0.36436012    -0.01700
C1925       C  0.03491234  0.35936594  0.37066210     0.03300
C1926       C  0.02649416  0.36304887  0.38536657    -0.04500
C1927       C  0.02996562  0.37783439  0.39374194    -0.01700
C1928       C  0.04141458  0.38901823  0.38726052     0.03300
C1929       C  0.05569188  0.36611551  0.34961375     0.38000
C1930       C  0.02234330  0.38128857  0.40947520     0.38000
C1931       C  0.04395035  0.40459926  0.39550255     0.36400
C1932       C  0.03138072  0.34428843  0.36187934     0.36400
N1933       N  0.04590036  0.41701121  0.40211398    -0.38400
N1934       N  0.02860680  0.33226952  0.35484655    -0.38400
N1935       N  0.01634320  0.38401379  0.42205972    -0.37900
N1936       N  0.06289313  0.36270047  0.33785680    -0.37900
C1937       C  0.13150940  0.48603018  0.39927853    -0.04500
C1938       C  0.14459610  0.48269095  0.41009733    -0.01700
C1939       C  0.14923637  0.49436620  0.42200139     0.03300
C1940       C  0.14076853  0.50942283  0.42313915    -0.04500
C1941       C  0.12775438  0.51279698  0.41221025    -0.01700
C1942       C  0.12301906  0.50106278  0.40044127     0.03300
C1943       C  0.15342125  0.46731264  0.40884116     0.38000
C1944       C  0.11953161  0.52855882  0.41271059     0.38000
C1945       C  0.10901084  0.50425505  0.38992069     0.36400
C1946       C  0.16245767  0.49068644  0.43333502     0.36400
N1947       N  0.09778181  0.50677235  0.38160562    -0.38400
N1948       N  0.17300844  0.48775260  0.44237126    -0.38400
N1949       N  0.11302912  0.54115405  0.41305292    -0.37900
N1950       N  0.16045798  0.45504478  0.40783123    -0.37900
C1951       C  0.90704001  0.48143003  0.75020050    -0.04500
C1952       C  0.90731008  0.46452120  0.75390336    -0.01700
C1953       C  0.90606634  0.45918703  0.77031976     0.03300
C1954       C  0.90492387  0.47071834  0.78325549    -0.04500
C1955       C  0.90470863  0.48765432  0.77952165    -0.01700
C1956       C  0.90556257  0.49295613  0.76306734     0.03300
C1957       C  0.90946849  0.45254496  0.74089093     0.38000
C1958       C  0.90423890  0.49975936  0.79258269     0.38000
C1959       C  0.90453627  0.51032364  0.75938504     0.36400
C1960       C  0.90558901  0.44175491  0.77378390     0.36400
N1961       N  0.90367254  0.52416899  0.75646079    -0.38400
N1962       N  0.90520620  0.42784358  0.77649311    -0.38400
N1963       N  0.90388690  0.50946626  0.80295060    -0.37900
N1964       N  0.91123065  0.44298571  0.73053218    -0.37900
C1965       C  0.96866639  0.55795060  0.65720856    -0.04500
C1966       C  0.96308487  0.57187656  0.64857164    -0.01700
C1967       C  0.97431409  0.58385596  0.64315660     0.03300
C1968       C  0.99126362  0.58198574  0.64628593    -0.04500
C1969       C  0.99677520  0.56836319  0.65544899    -0.01700
C1970       C  0.98550937  0.55645981  0.66100920     0.03300
C1971       C  0.94570391  0.57401606  0.64540379     0.38000
C1972       C  0.01408090  0.56659206  0.65919768     0.38000
C1973       C  0.99138458  0.54238596  0.67014119     0.36400
C1974       C  0.96841314  0.59771452  0.63371263     0.36400
N1975       N  0.99608949  0.53119532  0.67747000    -0.38400
N1976       N  0.96367255  0.60876435  0.62619536    -0.38400
N1977       N  0.02788326  0.56516374  0.66217533    -0.37900
N1978       N  0.93184370  0.57573439  0.64289117    -0.37900
C1979       C  0.88096709  0.46269294  0.61926355    -0.04500
C1980       C  0.87335425  0.47005121  0.60554425    -0.01700
C1981       C  0.86833082  0.46039408  0.59207575     0.03300
C1982       C  0.87055783  0.44322444  0.59234608    -0.04500
C1983       C  0.87756110  0.43577835  0.60633661    -0.01700
C1984       C  0.88275063  0.44545961  0.61974550     0.03300
C1985       C  0.87014097  0.48753990  0.60551936     0.38000
C1986       C  0.87907082  0.41808079  0.60713174     0.38000
C1987       C  0.89021448  0.43761917  0.63386691     0.36400
C1988       C  0.86133768  0.46825524  0.57771903     0.36400
N1989       N  0.89607551  0.43129378  0.64514254    -0.38400
N1990       N  0.85579990  0.47456133  0.56627065    -0.38400
N1991       N  0.88023445  0.40396426  0.60776248    -0.37900
N1992       N  0.86745881  0.50146233  0.60557410    -0.37900
C1993       C  0.98220786  0.74167932  0.12615044    -0.04500
C1994       C  0.99423821  0.72939427  0.12824898    -0.01700
C1995       C  0.99014453  0.71276005  0.12616153     0.03300
C1996       C  0.97374784  0.70813013  0.12283756    -0.04500
C1997       C  0.96153467  0.72038741  0.12164498    -0.01700
C1998       C  0.96580469  0.73709464  0.12294780     0.03300
C1999       C  0.01084496  0.73377215  0.13298807     0.38000
C2000       C  0.94446032  0.71586362  0.11941976     0.38000
C2001       C  0.95336522  0.74953191  0.12035603     0.36400
C2002       C  0.00309512  0.70058025  0.12672807     0.36400
N2003       N  0.94341281  0.75940542  0.11822155    -0.38400
N2004       N  0.01350418  0.69095784  0.12716865    -0.38400
N2005       N  0.93083354  0.71227750  0.11769832    -0.37900
N2006       N  0.02406920  0.73723590  0.13682146    -0.37900
C2007       C  0.93648473  0.99605760  0.27104023    -0.04500
C2008       C  0.95193541  0.99546405  0.27887652    -0.01700
C2009       C  0.95321447  0.99842104  0.29587907     0.03300
C2010       C  0.93915620  0.00273142  0.30505027    -0.04500
C2011       C  0.92391604  0.00443118  0.29702050    -0.01700
C2012       C  0.92248767  0.00078071  0.28015832     0.03300
C2013       C  0.96662062  0.99208507  0.26939965     0.38000
C2014       C  0.90972001  0.01023100  0.30605666     0.38000
C2015       C  0.90642359  0.00115049  0.27249997     0.36400
C2016       C  0.96889683  0.99623625  0.30401296     0.36400
N2017       N  0.89357589  0.00142011  0.26646200    -0.38400
N2018       N  0.98139617  0.99439948  0.31048719    -0.38400
N2019       N  0.89842808  0.01498480  0.31321879    -0.37900
N2020       N  0.97835184  0.98950387  0.26183968    -0.37900
C2021       C  0.94899276  0.89894855  0.17769138    -0.04500
C2022       C  0.94919951  0.88457978  0.18735642    -0.01700
C2023       C  0.95745361  0.87043526  0.18173872     0.03300
C2024       C  0.96563228  0.87061499  0.16644830    -0.04500
C2025       C  0.96459056  0.88468815  0.15639088    -0.01700
C2026       C  0.95655812  0.89886370  0.16208759     0.03300
C2027       C  0.94077568  0.88428338  0.20303758     0.38000
C2028       C  0.97141380  0.88449794  0.13992631     0.38000
C2029       C  0.95681206  0.91359563  0.15212575     0.36400
C2030       C  0.95782520  0.85586266  0.19190578     0.36400
N2031       N  0.95709695  0.92532947  0.14416879    -0.38400
N2032       N  0.95801817  0.84422096  0.20000066    -0.38400
N2033       N  0.97678340  0.88432538  0.12677608    -0.37900
N2034       N  0.93404592  0.88404328  0.21554133    -0.37900
C2035       C  0.10677936  0.96163496  0.77948915    -0.04500
C2036       C  0.09116091  0.96596989  0.78557149    -0.01700
C2037       C  0.08937828  0.97140417  0.80190375     0.03300
C2038       C  0.10321593  0.97255026  0.81233487    -0.04500
C2039       C  0.11883514  0.96811050  0.80626033    -0.01700
C2040       C  0.12061503  0.96276330  0.78987045     0.03300
C2041       C  0.07694235  0.96544925  0.77484866     0.38000
C2042       C  0.13321074  0.96955346  0.81666835     0.38000
C2043       C  0.13670104  0.95825953  0.78374439     0.36400
C2044       C  0.07317133  0.97553922  0.80798128     0.36400
N2045       N  0.14953812  0.95471147  0.77884939    -0.38400
N2046       N  0.06023471  0.97888936  0.81275256    -0.38400
N2047       N  0.14469834  0.97068914  0.82494350    -0.37900
N2048       N  0.06560828  0.96506459  0.76629867    -0.37900
C2049       C  0.22235757  0.90204397  0.05136778    -0.04500
C2050       C  0.22981278  0.89950025  0.06683572    -0.01700
C2051       C  0.24686832  0.90174927  0.06877025     0.03300
C2052       C  0.25654225  0.90717377  0.05543186    -0.04500
C2053       C  0.24910187  0.90945255  0.03989779    -0.01700
C2054       C  0.23223251  0.90640907  0.03778205     0.03300
C2055       C  0.21992275  0.89518835  0.08099001     0.38000
C2056       C  0.25851698  0.91573822  0.02615088     0.38000
C2057       C  0.22518216  0.90742848  0.02143261     0.36400
C2058       C  0.25445710  0.89817866  0.08448073     0.36400
N2059       N  0.21964269  0.90819917  0.00836870    -0.38400
N2060       N  0.26046055  0.89525470  0.09701723    -0.38400
N2061       N  0.26594060  0.92080117  0.01516139    -0.37900
N2062       N  0.21205748  0.89176202  0.09230154    -0.37900
C2063       C  0.12164732  0.93649097  0.97533496    -0.04500
C2064       C  0.10551274  0.94259994  0.97366995    -0.01700
C2065       C  0.10081596  0.95099409  0.95930183     0.03300
C2066       C  0.11236762  0.95396923  0.94671054    -0.04500
C2067       C  0.12844636  0.94770545  0.94826986    -0.01700
C2068       C  0.13299044  0.93879985  0.96238978     0.03300
C2069       C  0.09383854  0.94090593  0.98700707     0.38000
C2070       C  0.14057499  0.95088300  0.93563028     0.38000
C2071       C  0.14929229  0.93173534  0.96334024     0.36400
C2072       C  0.08390084  0.95615898  0.95734926     0.36400
N2073       N  0.16230294  0.92611901  0.96400821    -0.38400
N2074       N  0.07037795  0.96016931  0.95581954    -0.38400
N2075       N  0.15026580  0.95341593  0.92557109    -0.37900
N2076       N  0.08453484  0.93960404  0.99765183    -0.37900
C2077       C  0.09865329  0.85060535  0.07756892    -0.04500
C2078       C  0.08672658  0.84059692  0.06994200    -0.01700
C2079       C  0.07390752  0.83366190  0.07924204     0.03300
C2080       C  0.07308952  0.83636872  0.09639858    -0.04500
C2081       C  0.08574613  0.84536309  0.10418988    -0.01700
C2082       C  0.09842924  0.85250352  0.09482248     0.03300
C2083       C  0.08774600  0.83723502  0.05245937     0.38000
C2084       C  0.08583519  0.84722753  0.12191836     0.38000
C2085       C  0.11084458  0.86232106  0.10297943     0.36400
C2086       C  0.06118219  0.82444757  0.07085912     0.36400
N2087       N  0.12074879  0.87008282  0.10956937    -0.38400
N2088       N  0.05110429  0.81710019  0.06405908    -0.38400
N2089       N  0.08591953  0.84874113  0.13605033    -0.37900
N2090       N  0.08860791  0.83451233  0.03853694    -0.37900
C2091       C  0.77338836  0.07098884  0.03828281    -0.04500
C2092       C  0.76581461  0.08651511  0.03792186    -0.01700
C2093       C  0.74878715  0.08783523  0.03517530     0.03300
C2094       C  0.73910910  0.07357362  0.03292679    -0.04500
C2095       C  0.74676292  0.05801347  0.03336537    -0.01700
C2096       C  0.76384666  0.05676147  0.03585098     0.03300
C2097       C  0.77549041  0.10117509  0.04080821     0.38000
C2098       C  0.73703552  0.04318859  0.03192543     0.38000
C2099       C  0.77169735  0.04081271  0.03549789     0.36400
C2100       C  0.74140758  0.10398479  0.03434180     0.36400
N2101       N  0.77798577  0.02811113  0.03510349    -0.38400
N2102       N  0.73559171  0.11690252  0.03375945    -0.38400
N2103       N  0.72931443  0.03133191  0.03084516    -0.37900
N2104       N  0.78321100  0.11285412  0.04312971    -0.37900
C2105       C  0.87219238  0.03040246  0.12111101    -0.04500
C2106       C  0.88626047  0.02048814  0.11893243    -0.01700
C2107       C  0.89239415  0.01109071  0.13205312     0.03300
C2108       C  0.88410510  0.01084077  0.14726905    -0.04500
C2109       C  0.87004194  0.02067798  0.14950282    -0.01700
C2110       C  0.86412685  0.03046119  0.13649783     0.03300
C2111       C  0.89417991  0.01936603  0.10301480     0.38000
C2112       C  0.86153408  0.02063618  0.16514808     0.38000
C2113       C  0.84994992  0.04085783  0.13915762     0.36400
C2114       C  0.90772761  0.00227366  0.13006723     0.36400
N2115       N  0.83862085  0.04911145  0.14133233    -0.38400
N2116       N  0.92002332  0.99536771  0.12853893    -0.38400
N2117       N  0.85477254  0.02065359  0.17763820    -0.37900
N2118       N  0.90052158  0.01836109  0.09034470    -0.37900
C2119       C  0.00267043  0.21439368  0.93117914    -0.04500
C2120       C  0.00209488  0.22227429  0.91573536    -0.01700
C2121       C  0.00750581  0.23863276  0.91407696     0.03300
C2122       C  0.01332053  0.24742348  0.92789318    -0.04500
C2123       C  0.01412410  0.23943422  0.94329880    -0.01700
C2124       C  0.00896961  0.22298188  0.94487992     0.03300
C2125       C  0.99558345  0.21370434  0.90153065     0.38000
C2126       C  0.01984065  0.24818922  0.95772610     0.38000
C2127       C  0.01073082  0.21471385  0.96054504     0.36400
C2128       C  0.00757072  0.24620349  0.89796246     0.36400
N2129       N  0.01222342  0.20809643  0.97301454    -0.38400
N2130       N  0.00766510  0.25220518  0.88509597    -0.38400
N2131       N  0.02442051  0.25509920  0.96927219    -0.37900
N2132       N  0.99041028  0.20690307  0.89017307    -0.37900
C2133       C  0.92742186  0.11679876  0.99169207    -0.04500
C2134       C  0.91268976  0.12545354  0.99470260    -0.01700
C2135       C  0.90082454  0.11907938  0.00561833     0.03300
C2136       C  0.90324249  0.10370510  0.01323300    -0.04500
C2137       C  0.91810599  0.09520122  0.01049306    -0.01700
C2138       C  0.93021605  0.10183805  0.00004738     0.03300
C2139       C  0.90930981  0.14062429  0.98609301     0.38000
C2140       C  0.92082112  0.07926797  0.01791442     0.38000
C2141       C  0.94572741  0.09330531  0.99823835     0.36400
C2142       C  0.88629773  0.12863791  0.00934724     0.36400
N2143       N  0.95806680  0.08644439  0.99685478    -0.38400
N2144       N  0.87476562  0.13631676  0.01239025    -0.38400
N2145       N  0.92304932  0.06656193  0.02379938    -0.37900
N2146       N  0.90653272  0.15271610  0.97922987    -0.37900
C2147       C  0.02275631  0.08445853  0.90499939    -0.04500
C2148       C  0.03983111  0.08614680  0.90777049    -0.01700
C2149       C  0.05054906  0.07309594  0.90412331     0.03300
C2150       C  0.04436188  0.05830970  0.89765629    -0.04500
C2151       C  0.02745192  0.05672722  0.89440188    -0.01700
C2152       C  0.01667567  0.06974682  0.89804717     0.03300
C2153       C  0.04645836  0.10100694  0.91497644     0.38000
C2154       C  0.02106146  0.04149043  0.88777617     0.38000
C2155       C  0.99934122  0.06803088  0.89439219     0.36400
C2156       C  0.06803563  0.07489272  0.90695282     0.36400
N2157       N  0.98552021  0.06663219  0.89147255    -0.38400
N2158       N  0.08198433  0.07628946  0.90917030    -0.38400
N2159       N  0.01596246  0.02932842  0.88252085    -0.37900
N2160       N  0.05186568  0.11284222  0.92065811    -0.37900
loop_ 
_geom_bond_atom_site_label_1 
_geom_bond_atom_site_label_2 
_geom_bond_distance 
_geom_bond_site_symmetry_2 
_ccdc_geom_bond_type 
N1            N2   1.320   1_455  A
N1            C5   1.345       .  A
N1           Cu9   2.071   1_455  S
N2            C3   1.343       .  A
N2           Cu8   2.066       .  S
C3            C4   1.384   1_655  A
C3            H6   1.082       .  S
C4            C5   1.387       .  A
C4         C2147   1.490       .  S
C5            H7   1.082       .  S
Cu8          N11   2.066       .  S
Cu9          N19   2.072       .  S
Cu10         N12   2.094       .  S
Cu10         N18   2.094       .  S
N11          N12   1.322       .  A
N11          C15   1.342       .  A
N12          C13   1.349       .  A
C13          C14   1.391       .  A
C13          H16   1.082       .  S
C14          C15   1.384       .  A
C14        C2133   1.497       .  S
C15          H17   1.082       .  S
N18          N19   1.324       .  A
N18          C22   1.348       .  A
N19          C20   1.344   1_655  A
C20          C21   1.382   1_455  A
C20          H23   1.082       .  S
C21          C22   1.388       .  A
C21        C2119   1.491   1_655  S
C22          H24   1.082       .  S
N25          N26   1.321       .  A
N25          C29   1.346       .  A
N25         Cu33   2.069       .  S
N26          C27   1.343       .  A
N26         Cu32   2.070       .  S
C27          C28   1.385       .  A
C27          H30   1.082       .  S
C28          C29   1.386       .  A
C28        C2105   1.490       .  S
C29          H31   1.082       .  S
Cu32         N35   2.070       .  S
Cu33         N43   2.070       .  S
Cu34         N36   2.084       .  S
Cu34         N42   2.084       .  S
N35          N36   1.322       .  A
N35          C39   1.344       .  A
N36          C37   1.347       .  A
C37          C38   1.388       .  A
C37          H40   1.082       .  S
C38          C39   1.385       .  A
C38        C2136   1.494       .  S
C39          H41   1.082       .  S
N42          N43   1.324       .  A
N42          C46   1.346       .  A
N43          C44   1.344       .  A
C44          C45   1.380       .  A
C44          H47   1.082       .  S
C45          C46   1.384       .  A
C45        C2091   1.484       .  S
C46          H48   1.082       .  S
N49          N50   1.320       .  A
N49          C53   1.343   1_554  A
N49         Cu57   2.060       .  S
N50          C51   1.344   1_554  A
N50         Cu56   2.071       .  S
C51          C52   1.387       .  A
C51          H54   1.082       .  S
C52          C53   1.384       .  A
C52        C2063   1.489       .  S
C53          H55   1.082       .  S
Cu56         N59   2.072       .  S
Cu57         N67   2.060       .  S
Cu58         N60   2.075       .  S
Cu58         N66   2.075       .  S
N59          N60   1.322       .  A
N59          C63   1.342       .  A
N60          C61   1.346       .  A
C61          C62   1.385       .  A
C61          H64   1.082       .  S
C62          C63   1.383       .  A
C62        C2077   1.488       .  S
C63          H65   1.082       .  S
N66          N67   1.321       .  A
N66          C70   1.346       .  A
N67          C68   1.340       .  A
C68          C69   1.382       .  A
C68          H71   1.082       .  S
C69          C70   1.387       .  A
C69        C2049   1.489       .  S
C70          H72   1.082       .  S
N73          N74   1.322       .  A
N73          C77   1.345       .  A
N73         Cu81   2.068       .  S
N74          C75   1.344       .  A
N74         Cu80   2.068       .  S
C75          C76   1.381       .  A
C75          H78   1.082       .  S
C76          C77   1.381       .  A
C76        C2150   1.479       .  S
C77          H79   1.082       .  S
Cu80         N83   2.068   1_545  S
Cu81         N91   2.068   1_545  S
Cu82         N84   2.075       .  S
Cu82         N90   2.075       .  S
N83          N84   1.322       .  A
N83          C87   1.343       .  A
N84          C85   1.345       .  A
C85          C86   1.385       .  A
C85          H88   1.082       .  S
C86          C87   1.383       .  A
C86        C2066   1.488       .  S
C87          H89   1.082       .  S
N90          N91   1.322       .  A
N90          C94   1.346       .  A
N91          C92   1.343       .  A
C92          C93   1.383       .  A
C92          H95   1.082   1_565  S
C93          C94   1.385       .  A
C93        C2038   1.487       .  S
C94          H96   1.082       .  S
N97          N98   1.322       .  A
N97         C101   1.346       .  A
N97        Cu105   2.073       .  S
N98          C99   1.344       .  A
N98        Cu104   2.070       .  S
C99         C100   1.383       .  A
C99         H102   1.082       .  S
C100        C101   1.384       .  A
C100       C2021   1.486       .  S
C101        H103   1.082       .  S
Cu104       N107   2.071       .  S
Cu105       N115   2.073       .  S
Cu106       N108   2.065       .  S
Cu106       N114   2.065       .  S
N107        N108   1.321       .  A
N107        C111   1.343       .  A
N108        C109   1.345   1_565  A
C109        C110   1.383       .  A
C109        H112   1.082       .  S
C110        C111   1.384   1_545  A
C110       C2108   1.484       .  S
C111        H113   1.082       .  S
N114        N115   1.322       .  A
N114        C118   1.344       .  A
N115        C116   1.343       .  A
C116        C117   1.384       .  A
C116        H119   1.082       .  S
C117        C118   1.383       .  A
C117       C2007   1.486       .  S
C118        H120   1.082   1_565  S
N121        N122   1.319       .  A
N121        C125   1.345       .  A
N121       Cu129   2.066       .  S
N122        C123   1.343       .  A
N122       Cu128   2.068       .  S
C123        C124   1.386       .  A
C123        H126   1.082       .  S
C124        C125   1.386       .  A
C124       C2080   1.491       .  S
C125        H127   1.082       .  S
Cu128       N131   2.068   1_455  S
Cu129       N139   2.067       .  S
Cu130       N132   2.074       .  S
Cu130       N138   2.074       .  S
N131        N132   1.322       .  A
N131        C135   1.341       .  A
N132        C133   1.347       .  A
C133        C134   1.385       .  A
C133        H136   1.082       .  S
C134        C135   1.382       .  A
C134       C2024   1.487       .  S
C135        H137   1.082       .  S
N138        N139   1.323   1_655  A
N138        C142   1.346       .  A
N139        C140   1.341       .  A
C140        C141   1.382   1_455  A
C140        H143   1.082       .  S
C141        C142   1.385       .  A
C141       C1993   1.486       .  S
C142        H144   1.082       .  S
N145        N146   1.322       .  A
N145        C149   1.346       .  A
N145       Cu153   2.072       .  S
N146        C147   1.344       .  A
N146       Cu152   2.076       .  S
C147        C148   1.384       .  A
C147        H150   1.082       .  S
C148        C149   1.384       .  A
C148       C1965   1.487       .  S
C149        H151   1.082       .  S
Cu152       N155   2.076       .  S
Cu153       N163   2.072       .  S
Cu154       N156   2.071       .  S
Cu154       N162   2.071       .  S
N155        N156   1.322       .  A
N155        C159   1.344       .  A
N156        C157   1.346       .  A
C157        C158   1.384       .  A
C157        H160   1.082       .  S
C158        C159   1.384       .  A
C158       C1979   1.488       .  S
C159        H161   1.082       .  S
N162        N163   1.322       .  A
N162        C166   1.344       .  A
N163        C164   1.344       .  A
C164        C165   1.383       .  A
C164        H167   1.082       .  S
C165        C166   1.383       .  A
C165       C1951   1.486       .  S
C166        H168   1.082       .  S
N169        N170   1.322       .  A
N169        C173   1.344       .  A
N169       Cu177   2.068       .  S
N170        C171   1.343       .  A
N170       Cu176   2.071       .  S
C171        C172   1.384       .  A
C171        H174   1.082       .  S
C172        C173   1.384       .  A
C172       C1923   1.488       .  S
C173        H175   1.082       .  S
Cu176       N179   2.070       .  S
Cu177       N187   2.068       .  S
Cu178       N180   2.063       .  S
Cu178       N186   2.063       .  S
N179        N180   1.322       .  A
N179        C183   1.345       .  A
N180        C181   1.342       .  A
C181        C182   1.380       .  A
C181        H184   1.082       .  S
C182        C183   1.382       .  A
C182       C1937   1.479       .  S
C183        H185   1.082       .  S
N186        N187   1.321       .  A
N186        C190   1.343       .  A
N187        C188   1.344       .  A
C188        C189   1.383       .  A
C188        H191   1.082       .  S
C189        C190   1.382       .  A
C189       C1912   1.483       .  S
C190        H192   1.082       .  S
N193        N194   1.323       .  A
N193        C197   1.346       .  A
N193       Cu201   2.080       .  S
N194        C195   1.343       .  A
N194       Cu200   2.066       .  S
C195        C196   1.380       .  A
C195        H198   1.082       .  S
C196        C197   1.384       .  A
C196       C1895   1.483       .  S
C197        H199   1.082       .  S
Cu200       N203   2.066       .  S
Cu201       N211   2.080       .  S
Cu202       N204   2.078       .  S
Cu202       N210   2.079       .  S
N203        N204   1.321       .  A
N203        C207   1.343       .  A
N204        C205   1.346       .  A
C205        C206   1.386       .  A
C205        H208   1.082   1_455  S
C206        C207   1.382       .  A
C206       C1968   1.487   1_455  S
C207        H209   1.082       .  S
N210        N211   1.322       .  A
N210        C214   1.344       .  A
N211        C212   1.346       .  A
C212        C213   1.387       .  A
C212        H215   1.082       .  S
C213        C214   1.386       .  A
C213       C1881   1.495       .  S
C214        H216   1.082       .  S
N217        N218   1.322       .  A
N217        C221   1.344       .  A
N217       Cu225   2.065       .  S
N218        C219   1.343       .  A
N218       Cu224   2.067       .  S
C219        C220   1.382       .  A
C219        H222   1.082       .  S
C220        C221   1.382       .  A
C220       C1940   1.481       .  S
C221        H223   1.082       .  S
Cu224       N227   2.067       .  S
Cu225       N235   2.065       .  S
Cu226       N228   2.075       .  S
Cu226       N234   2.075       .  S
N227        N228   1.322       .  A
N227        C231   1.345       .  A
N228        C229   1.344       .  A
C229        C230   1.384       .  A
C229        H232   1.082       .  S
C230        C231   1.383       .  A
C230       C1898   1.486       .  S
C231        H233   1.082       .  S
N234        N235   1.322       .  A
N234        C238   1.344       .  A
N235        C236   1.344       .  A
C236        C237   1.382       .  A
C236        H239   1.082       .  S
C237        C238   1.383       .  A
C237       C1867   1.482       .  S
C238        H240   1.082       .  S
N241        N242   1.323   1_455  A
N241        C245   1.344       .  A
N241       Cu249   2.068       .  S
N242        C243   1.344       .  A
N242       Cu248   2.078       .  S
C243        C244   1.385   1_655  A
C243        H246   1.082       .  S
C244        C245   1.382       .  A
C244       C1926   1.486       .  S
C245        H247   1.082       .  S
Cu248       N251   2.078       .  S
Cu249       N259   2.068       .  S
Cu250       N252   2.062       .  S
Cu250       N258   2.062       .  S
N251        N252   1.322       .  A
N251        C255   1.346       .  A
N252        C253   1.342       .  A
C253        C254   1.382       .  A
C253        H256   1.082       .  S
C254        C255   1.386       .  A
C254       C1853   1.487       .  S
C255        H257   1.082       .  S
N258        N259   1.321   1_655  A
N258        C262   1.344       .  A
N259        C260   1.343       .  A
C260        C261   1.383       .  A
C260        H263   1.082       .  S
C261        C262   1.382   1_455  A
C261       C1839   1.483       .  S
C262        H264   1.082       .  S
N265        N266   1.321       .  A
N265        C269   1.343       .  A
N265       Cu273   2.062       .  S
N266        C267   1.346       .  A
N266       Cu272   2.080       .  S
C267        C268   1.386       .  A
C267        H270   1.082       .  S
C268        C269   1.381       .  A
C268       C1982   1.486       .  S
C269        H271   1.082       .  S
Cu272       N275   2.080       .  S
Cu273       N283   2.062       .  S
Cu274       N276   2.071       .  S
Cu274       N282   2.070       .  S
N275        N276   1.322       .  A
N275        C279   1.343       .  A
N276        C277   1.345       .  A
C277        C278   1.385       .  A
C277        H280   1.082       .  S
C278        C279   1.386       .  A
C278       C1856   1.492       .  S
C279        H281   1.082       .  S
N282        N283   1.322       .  A
N282        C286   1.345       .  A
N283        C284   1.342       .  A
C284        C285   1.380       .  A
C284        H287   1.082       .  S
C285        C286   1.382       .  A
C285       C1825   1.479       .  S
C286        H288   1.082       .  S
N289        N290   1.322       .  A
N289        C293   1.346       .  A
N289       Cu297   2.077       .  S
N290        C291   1.343       .  A
N290       Cu296   2.069       .  S
C291        C292   1.383       .  A
C291        H294   1.082       .  S
C292        C293   1.386       .  A
C292       C1800   1.489       .  S
C293        H295   1.082       .  S
Cu296       N299   2.069       .  S
Cu297       N307   2.078       .  S
Cu298       N300   2.080       .  S
Cu298       N306   2.081       .  S
N299        N300   1.322       .  A
N299        C303   1.345       .  A
N300        C301   1.346   1_455  A
C301        C302   1.386       .  A
C301        H304   1.082       .  S
C302        C303   1.383   1_655  A
C302       C1811   1.488       .  S
C303        H305   1.082       .  S
N306        N307   1.323       .  A
N306        C310   1.346       .  A
N307        C308   1.346       .  A
C308        C309   1.386       .  A
C308        H311   1.082       .  S
C309        C310   1.386       .  A
C309       C2122   1.494       .  S
C310        H312   1.082   1_455  S
N313        N314   1.322       .  A
N313        C317   1.344       .  A
N313       Cu321   2.072       .  S
N314        C315   1.346       .  A
N314       Cu320   2.078       .  S
C315        C316   1.386       .  A
C315        H318   1.082       .  S
C316        C317   1.385       .  A
C316       C1814   1.492       .  S
C317        H319   1.082       .  S
Cu320       N323   2.077       .  S
Cu321       N331   2.072       .  S
Cu322       N324   2.067       .  S
Cu322       N330   2.067       .  S
N323        N324   1.323       .  A
N323        C327   1.346       .  A
N324        C325   1.343       .  A
C325        C326   1.382       .  A
C325        H328   1.082       .  S
C326        C327   1.384       .  A
C326       C1783   1.484       .  S
C327        H329   1.082       .  S
N330        N331   1.321       .  A
N330        C334   1.344       .  A
N331        C332   1.344       .  A
C332        C333   1.386       .  A
C332        H335   1.082       .  S
C333        C334   1.385       .  A
C333       C1954   1.490       .  S
C334        H336   1.082       .  S
N337        N338   1.322       .  A
N337        C341   1.344       .  A
N337       Cu345   2.068       .  S
N338        C339   1.345       .  A
N338       Cu344   2.071       .  S
C339        C340   1.382       .  A
C339        H342   1.082       .  S
C340        C341   1.381       .  A
C340       C1769   1.481   1_655  S
C341        H343   1.082   1_655  S
Cu344       N347   2.071       .  S
Cu345       N355   2.067       .  S
Cu346       N348   2.063       .  S
Cu346       N354   2.063       .  S
N347        N348   1.322       .  A
N347        C351   1.344       .  A
N348        C349   1.343       .  A
C349        C350   1.382       .  A
C349        H352   1.082       .  S
C350        C351   1.384       .  A
C350       C1755   1.484       .  S
C351        H353   1.082       .  S
N354        N355   1.321       .  A
N354        C358   1.343       .  A
N355        C356   1.343       .  A
C356        C357   1.386       .  A
C356        H359   1.082       .  S
C357        C358   1.384       .  A
C357       C1996   1.489       .  S
C358        H360   1.082       .  S
N361        N362   1.321   1_554  A
N361        C365   1.344       .  A
N361       Cu369   2.067   1_554  S
N362        C363   1.344   1_556  A
N362       Cu368   2.064       .  S
C363        C364   1.380       .  A
C363        H366   1.082   1_554  S
C364        C365   1.382       .  A
C364       C1758   1.478       .  S
C365        H367   1.082       .  S
Cu368       N371   2.065       .  S
Cu369       N379   2.068       .  S
Cu370       N372   2.073       .  S
Cu370       N378   2.073       .  S
N371        N372   1.322       .  A
N371        C375   1.342       .  A
N372        C373   1.346       .  A
C373        C374   1.384       .  A
C373        H376   1.082       .  S
C374        C375   1.381       .  A
C374       C1786   1.483       .  S
C375        H377   1.082       .  S
N378        N379   1.322       .  A
N378        C382   1.345       .  A
N379        C380   1.343       .  A
C380        C381   1.383       .  A
C380        H383   1.082   1_556  S
C381        C382   1.384       .  A
C381       C1744   1.487       .  S
C382        H384   1.082       .  S
N385        N386   1.322       .  A
N385        C389   1.344       .  A
N385       Cu393   2.071       .  S
N386        C387   1.344       .  A
N386       Cu392   2.068       .  S
C387        C388   1.383       .  A
C387        H390   1.082       .  S
C388        C389   1.384       .  A
C388       C1727   1.485       .  S
C389        H391   1.082       .  S
Cu392       N395   2.068       .  S
Cu393       N403   2.071       .  S
Cu394       N396   2.076       .  S
Cu394       N402   2.076       .  S
N395        N396   1.322       .  A
N395        C399   1.344       .  A
N396        C397   1.345   1_554  A
C397        C398   1.384       .  A
C397        H400   1.082       .  S
C398        C399   1.382   1_556  A
C398       C1797   1.485       .  S
C399        H401   1.082       .  S
N402        N403   1.322       .  A
N402        C406   1.345       .  A
N403        C404   1.345       .  A
C404        C405   1.383       .  A
C404        H407   1.082       .  S
C405        C406   1.384       .  A
C405       C1713   1.486       .  S
C406        H408   1.082   1_554  S
N409        N410   1.321       .  A
N409        C413   1.344       .  A
N409       Cu417   2.068       .  S
N410        C411   1.343       .  A
N410       Cu416   2.063       .  S
C411        C412   1.382       .  A
C411        H414   1.082       .  S
C412        C413   1.384       .  A
C412       C1772   1.483       .  S
C413        H415   1.082       .  S
Cu416       N419   2.063       .  S
Cu417       N427   2.068       .  S
Cu418       N420   2.069       .  S
Cu418       N426   2.070       .  S
N419        N420   1.321       .  A
N419        C423   1.343       .  A
N420        C421   1.344       .  A
C421        C422   1.385       .  A
C421        H424   1.082       .  S
C422        C423   1.382       .  A
C422       C1730   1.485       .  S
C423        H425   1.082       .  S
N426        N427   1.322       .  A
N426        C430   1.343       .  A
N427        C428   1.344       .  A
C428        C429   1.384       .  A
C428        H431   1.082       .  S
C429        C430   1.384       .  A
C429       C1909   1.487       .  S
C430        H432   1.082       .  S
N433        N434   1.322       .  A
N433        C437   1.344       .  A
N433       Cu441   2.068       .  S
N434        C435   1.346       .  A
N434       Cu440   2.080       .  S
C435        C436   1.387       .  A
C435        H438   1.082       .  S
C436        C437   1.383       .  A
C436       C1699   1.489       .  S
C437        H439   1.082       .  S
Cu440       N443   2.079       .  S
Cu441       N451   2.067       .  S
Cu442       N444   2.065       .  S
Cu442       N450   2.065       .  S
N443        N444   1.323       .  A
N443        C447   1.345       .  A
N444        C445   1.343       .  A
C445        C446   1.382       .  A
C445        H448   1.082       .  S
C446        C447   1.384       .  A
C446       C1685   1.485       .  S
C447        H449   1.082       .  S
N450        N451   1.321       .  A
N450        C454   1.344       .  A
N451        C452   1.343       .  A
C452        C453   1.383       .  A
C452        H455   1.082       .  S
C453        C454   1.383       .  A
C453       C1671   1.483       .  S
C454        H456   1.082       .  S
N457        N458   1.322       .  A
N457        C461   1.346       .  A
N457       Cu465   2.077       .  S
N458        C459   1.344       .  A
N458       Cu464   2.070       .  S
C459        C460   1.383       .  A
C459        H462   1.082       .  S
C460        C461   1.386       .  A
C460       C1702   1.489       .  S
C461        H463   1.082       .  S
Cu464       N467   2.070       .  S
Cu465       N475   2.077       .  S
Cu466       N468   2.080       .  S
Cu466       N474   2.080   1_554  S
N467        N468   1.321   1_556  A
N467        C471   1.344   1_556  A
N468        C469   1.346       .  A
C469        C470   1.388       .  A
C469        H472   1.082       .  S
C470        C471   1.385       .  A
C470       C1657   1.493       .  S
C471        H473   1.082   1_554  S
N474        N475   1.323       .  A
N474        C478   1.344   1_556  A
N475        C476   1.346       .  A
C476        C477   1.386       .  A
C476        H479   1.082       .  S
C477        C478   1.386   1_556  A
C477       C1716   1.493       .  S
C478        H480   1.082       .  S
N481        N482   1.322       .  A
N481        C485   1.347       .  A
N481       Cu489   2.076       .  S
N482        C483   1.341       .  A
N482       Cu488   2.065       .  S
C483        C484   1.383       .  A
C483        H486   1.082       .  S
C484        C485   1.387       .  A
C484       C1643   1.489       .  S
C485        H487   1.082       .  S
Cu488       N491   2.065       .  S
Cu489       N499   2.076       .  S
Cu490       N492   2.067       .  S
Cu490       N498   2.067       .  S
N491        N492   1.321       .  A
N491        C495   1.343       .  A
N492        C493   1.344       .  A
C493        C494   1.384       .  A
C493        H496   1.082       .  S
C494        C495   1.383       .  A
C494       C1688   1.485       .  S
C495        H497   1.082       .  S
N498        N499   1.322       .  A
N498        C502   1.342       .  A
N499        C500   1.346       .  A
C500        C501   1.387       .  A
C500        H503   1.082       .  S
C501        C502   1.384       .  A
C501       C1629   1.490       .  S
C502        H504   1.082       .  S
N505        N506   1.322       .  A
N505        C509   1.347       .  A
N505       Cu513   2.081       .  S
N506        C507   1.344       .  A
N506       Cu512   2.072       .  S
C507        C508   1.383       .  A
C507        H510   1.082       .  S
C508        C509   1.385       .  A
C508       C1660   1.488       .  S
C509        H511   1.082       .  S
Cu512       N515   2.072       .  S
Cu513       N523   2.081       .  S
Cu514       N516   2.078       .  S
Cu514       N522   2.079       .  S
N515        N516   1.322       .  A
N515        C519   1.344       .  A
N516        C517   1.346       .  A
C517        C518   1.387       .  A
C517        H520   1.082       .  S
C518        C519   1.384       .  A
C518       C1618   1.490       .  S
C519        H521   1.082       .  S
N522        N523   1.323       .  A
N522        C526   1.345       .  A
N523        C524   1.346       .  A
C524        C525   1.386       .  A
C524        H527   1.082       .  S
C525        C526   1.385       .  A
C525       C1601   1.492       .  S
C526        H528   1.082       .  S
N529        N530   1.321       .  A
N529        C533   1.343       .  A
N529       Cu537   2.066       .  S
N530        C531   1.345       .  A
N530       Cu536   2.071       .  S
C531        C532   1.386       .  A
C531        H534   1.082       .  S
C532        C533   1.385       .  A
C532       C1590   1.490       .  S
C533        H535   1.082       .  S
Cu536       N539   2.070       .  S
Cu537       N547   2.066       .  S
Cu538       N540   2.076       .  S
Cu538       N546   2.076       .  S
N539        N540   1.322       .  A
N539        C543   1.343       .  A
N540        C541   1.345   1_554  A
C541        C542   1.386   1_556  A
C541        H544   1.082       .  S
C542        C543   1.384       .  A
C542       C1646   1.490   1_554  S
C543        H545   1.082       .  S
N546        N547   1.321       .  A
N546        C550   1.346       .  A
N547        C548   1.342       .  A
C548        C549   1.384       .  A
C548        H551   1.082       .  S
C549        C550   1.387       .  A
C549       C1741   1.490       .  S
C550        H552   1.082   1_554  S
N553        N554   1.322       .  A
N553        C557   1.348       .  A
N553       Cu561   2.082       .  S
N554        C555   1.343       .  A
N554       Cu560   2.068       .  S
C555        C556   1.382       .  A
C555        H558   1.082       .  S
C556        C557   1.386       .  A
C556       C1615   1.487       .  S
C557        H559   1.082       .  S
Cu560       N563   2.067       .  S
Cu561       N571   2.082       .  S
Cu562       N564   2.080       .  S
Cu562       N570   2.081       .  S
N563        N564   1.322       .  A
N563        C567   1.344       .  A
N564        C565   1.346       .  A
C565        C566   1.386       .  A
C565        H568   1.082       .  S
C566        C567   1.383       .  A
C566       C1587   1.488       .  S
C567        H569   1.082       .  S
N570        N571   1.323       .  A
N570        C574   1.346       .  A
N571        C572   1.346       .  A
C572        C573   1.386       .  A
C572        H575   1.082       .  S
C573        C574   1.386       .  A
C573       C1573   1.494       .  S
C574        H576   1.082       .  S
N577        N578   1.318       .  A
N577        C581   1.343       .  A
N577       Cu585   2.067       .  S
N578        C579   1.342       .  A
N578       Cu584   2.057       .  S
C579        C580   1.386       .  A
C579        H582   1.081       .  S
C580        C581   1.389       .  A
C580       C1559   1.494       .  S
C581        H583   1.081       .  S
Cu584       N587   2.058       .  S
Cu585       N595   2.068       .  S
Cu586       N588   2.078       .  S
Cu586       N594   2.079       .  S
N587        N588   1.322       .  A
N587        C591   1.339       .  A
N588        C589   1.348       .  A
C589        C590   1.386       .  A
C589        H592   1.082       .  S
C590        C591   1.379       .  A
C590       C1548   1.483       .  S
C591        H593   1.082       .  S
N594        N595   1.323       .  A
N594        C598   1.346       .  A
N595        C596   1.342       .  A
C596        C597   1.383       .  A
C596        H599   1.082       .  S
C597        C598   1.386       .  A
C597       C2052   1.489       .  S
C598        H600   1.082       .  S
N601        N602   1.322       .  A
N601        C605   1.343       .  A
N601       Cu609   2.068       .  S
N602        C603   1.345       .  A
N602       Cu608   2.070       .  S
C603        C604   1.384       .  A
C603        H606   1.082       .  S
C604        C605   1.383       .  A
C604       C1531   1.486       .  S
C605        H607   1.082       .  S
Cu608       N611   2.070       .  S
Cu609       N619   2.068       .  S
Cu610       N612   2.070       .  S
Cu610       N618   2.070       .  S
N611        N612   1.322       .  A
N611        C615   1.344       .  A
N612        C613   1.343       .  A
C613        C614   1.384       .  A
C613        H616   1.082       .  S
C614        C615   1.385       .  A
C614       C1562   1.489       .  S
C615        H617   1.082       .  S
N618        N619   1.321       .  A
N618        C622   1.345       .  A
N619        C620   1.343       .  A
C620        C621   1.383       .  A
C620        H623   1.082       .  S
C621        C622   1.384       .  A
C621       C1632   1.486       .  S
C622        H624   1.082       .  S
N625        N626   1.321       .  A
N625        C629   1.347       .  A
N625       Cu633   2.081   1_556  S
N626        C627   1.342       .  A
N626       Cu632   2.068   1_556  S
C627        C628   1.386       .  A
C627        H630   1.082       .  S
C628        C629   1.390       .  A
C628       C1503   1.497       .  S
C629        H631   1.081       .  S
Cu632       N635   2.068       .  S
Cu633       N643   2.082       .  S
Cu634       N636   2.072       .  S
Cu634       N642   2.073       .  S
N635        N636   1.320       .  A
N635        C639   1.343       .  A
N636        C637   1.346       .  A
C637        C638   1.387       .  A
C637        H640   1.082       .  S
C638        C639   1.385       .  A
C638       C1517   1.492       .  S
C639        H641   1.082       .  S
N642        N643   1.323       .  A
N642        C646   1.344       .  A
N643        C644   1.346       .  A
C644        C645   1.386       .  A
C644        H647   1.082       .  S
C645        C646   1.385       .  A
C645       C2094   1.492       .  S
C646        H648   1.082       .  S
N649        N650   1.321       .  A
N649        C653   1.347       .  A
N649       Cu657   2.077       .  S
N650        C651   1.341       .  A
N650       Cu656   2.058       .  S
C651        C652   1.382       .  A
C651        H654   1.082       .  S
C652        C653   1.387       .  A
C652       C1534   1.487       .  S
C653        H655   1.082       .  S
Cu656       N659   2.058   1_565  S
Cu657       N667   2.078   1_565  S
Cu658       N660   2.087       .  S
Cu658       N666   2.088       .  S
N659        N660   1.320       .  A
N659        C663   1.342       .  A
N660        C661   1.348       .  A
C661        C662   1.391       .  A
C661        H664   1.082       .  S
C662        C663   1.383       .  A
C662       C1506   1.494       .  S
C663        H665   1.082       .  S
N666        N667   1.324       .  A
N666        C670   1.346       .  A
N667        C668   1.345       .  A
C668        C669   1.385       .  A
C668        H671   1.082   1_545  S
C669        C670   1.387       .  A
C669       C1489   1.494       .  S
C670        H672   1.082       .  S
N673        N674   1.321       .  A
N673        C677   1.345       .  A
N673       Cu681   2.073       .  S
N674        C675   1.344       .  A
N674       Cu680   2.067       .  S
C675        C676   1.384       .  A
C675        H678   1.082       .  S
C676        C677   1.385       .  A
C676       C1475   1.489       .  S
C677        H679   1.082       .  S
Cu680       N683   2.067       .  S
Cu681       N691   2.073       .  S
Cu682       N684   2.068       .  S
Cu682       N690   2.069       .  S
N683        N684   1.322       .  A
N683        C687   1.343       .  A
N684        C685   1.345   1_545  A
C685        C686   1.383       .  A
C685        H688   1.082       .  S
C686        C687   1.381   1_565  A
C686       C1545   1.482       .  S
C687        H689   1.082       .  S
N690        N691   1.322       .  A
N690        C694   1.344       .  A
N691        C692   1.344       .  A
C692        C693   1.384       .  A
C692        H695   1.082       .  S
C693        C694   1.383       .  A
C693       C1461   1.485       .  S
C694        H696   1.082   1_545  S
N697        N698   1.322       .  A
N697        C701   1.345       .  A
N697       Cu705   2.074       .  S
N698        C699   1.344       .  A
N698       Cu704   2.073       .  S
C699        C700   1.384       .  A
C699        H702   1.082       .  S
C700        C701   1.385       .  A
C700       C1520   1.489       .  S
C701        H703   1.082       .  S
Cu704       N707   2.073       .  S
Cu705       N715   2.074       .  S
Cu706       N708   2.077       .  S
Cu706       N714   2.077       .  S
N707        N708   1.322       .  A
N707        C711   1.345       .  A
N708        C709   1.345       .  A
C709        C710   1.386       .  A
C709        H712   1.082       .  S
C710        C711   1.386       .  A
C710       C1478   1.493       .  S
C711        H713   1.082       .  S
N714        N715   1.323       .  A
N714        C718   1.346       .  A
N715        C716   1.345       .  A
C716        C717   1.383       .  A
C716        H719   1.082       .  S
C717        C718   1.384       .  A
C717       C1604   1.487       .  S
C718        H720   1.082       .  S
N721        N722   1.322       .  A
N721        C725   1.348       .  A
N721       Cu729   2.086       .  S
N722        C723   1.344       .  A
N722       Cu728   2.071       .  S
C723        C724   1.384       .  A
C723        H726   1.082       .  S
C724        C725   1.389       .  A
C724       C1447   1.494       .  S
C725        H727   1.082       .  S
Cu728       N731   2.071       .  S
Cu729       N739   2.086       .  S
Cu730       N732   2.078       .  S
Cu730       N738   2.078       .  S
N731        N732   1.321       .  A
N731        C735   1.344       .  A
N732        C733   1.348       .  A
C733        C734   1.386       .  A
C733        H736   1.082       .  S
C734        C735   1.383       .  A
C734       C1433   1.488       .  S
C735        H737   1.082       .  S
N738        N739   1.324       .  A
N738        C742   1.345       .  A
N739        C740   1.347       .  A
C740        C741   1.387       .  A
C740        H743   1.082       .  S
C741        C742   1.383       .  A
C741       C1419   1.491       .  S
C742        H744   1.082       .  S
N745        N746   1.322       .  A
N745        C749   1.343       .  A
N745       Cu753   2.067       .  S
N746        C747   1.346       .  A
N746       Cu752   2.075       .  S
C747        C748   1.384       .  A
C747        H750   1.082       .  S
C748        C749   1.382       .  A
C748       C1405   1.484       .  S
C749        H751   1.082       .  S
Cu752       N755   2.075       .  S
Cu753       N763   2.067       .  S
Cu754       N756   2.070       .  S
Cu754       N762   2.070       .  S
N755        N756   1.322       .  A
N755        C759   1.344       .  A
N756        C757   1.344       .  A
C757        C758   1.384       .  A
C757        H760   1.082       .  S
C758        C759   1.386       .  A
C758       C1391   1.490       .  S
C759        H761   1.082       .  S
N762        N763   1.322       .  A
N762        C766   1.344       .  A
N763        C764   1.344       .  A
C764        C765   1.382       .  A
C764        H767   1.082       .  S
C765        C766   1.384       .  A
C765       C2035   1.484       .  S
C766        H768   1.082       .  S
N769        N770   1.322       .  A
N769        C773   1.345       .  A
N769       Cu777   2.077       .  S
N770        C771   1.346       .  A
N770       Cu776   2.074       .  S
C771        C772   1.386       .  A
C771        H774   1.082       .  S
C772        C773   1.386       .  A
C772       C1450   1.492       .  S
C773        H775   1.082       .  S
Cu776       N779   2.073   1_655  S
Cu777       N787   2.077   1_655  S
Cu778       N780   2.073       .  S
Cu778       N786   2.072       .  S
N779        N780   1.323       .  A
N779        C783   1.344       .  A
N780        C781   1.344       .  A
C781        C782   1.384       .  A
C781        H784   1.082       .  S
C782        C783   1.384       .  A
C782       C1394   1.488       .  S
C783        H785   1.082       .  S
N786        N787   1.322       .  A
N786        C790   1.346       .  A
N787        C788   1.344   1_455  A
C788        C789   1.385   1_655  A
C788        H791   1.082       .  S
C789        C790   1.385       .  A
C789       C1884   1.490       .  S
C790        H792   1.082       .  S
N793        N794   1.321       .  A
N793        C797   1.342       .  A
N793       Cu801   2.060       .  S
N794        C795   1.346       .  A
N794       Cu800   2.079       .  S
C795        C796   1.387       .  A
C795        H798   1.082       .  S
C796        C797   1.381       .  A
C796       C1377   1.487       .  S
C797        H799   1.082       .  S
Cu800       N803   2.080   1_545  S
Cu801       N811   2.060       .  S
Cu802       N804   2.078       .  S
Cu802       N810   2.077   1_565  S
N803        N804   1.323       .  A
N803        C807   1.345       .  A
N804        C805   1.347       .  A
C805        C806   1.383       .  A
C805        H808   1.082       .  S
C806        C807   1.383       .  A
C806       C1436   1.486       .  S
C807        H809   1.082       .  S
N810        N811   1.322       .  A
N810        C814   1.345   1_545  A
N811        C812   1.343       .  A
C812        C813   1.381       .  A
C812        H815   1.082       .  S
C813        C814   1.384   1_545  A
C813       C2010   1.483       .  S
C814        H816   1.082       .  S
N817        N818   1.321       .  A
N817        C821   1.346       .  A
N817       Cu825   2.070       .  S
N818        C819   1.341       .  A
N818       Cu824   2.066       .  S
C819        C820   1.383       .  A
C819        H822   1.082       .  S
C820        C821   1.385       .  A
C820       C1366   1.487       .  S
C821        H823   1.082       .  S
Cu824       N827   2.065       .  S
Cu825       N835   2.070       .  S
Cu826       N828   2.069       .  S
Cu826       N834   2.069       .  S
N827        N828   1.321       .  A
N827        C831   1.344       .  A
N828        C829   1.344       .  A
C829        C830   1.383       .  A
C829        H832   1.082       .  S
C830        C831   1.382       .  A
C830       C1380   1.482       .  S
C831        H833   1.082       .  S
N834        N835   1.322       .  A
N834        C838   1.343       .  A
N835        C836   1.344       .  A
C836        C837   1.384       .  A
C836        H839   1.082       .  S
C837        C838   1.384       .  A
C837       C1842   1.487       .  S
C838        H840   1.082       .  S
N841        N842   1.321       .  A
N841        C845   1.345       .  A
N841       Cu849   2.079       .  S
N842        C843   1.343       .  A
N842       Cu848   2.065       .  S
C843        C844   1.384       .  A
C843        H846   1.082       .  S
C844        C845   1.387       .  A
C844       C1408   1.491       .  S
C845        H847   1.082       .  S
Cu848       N851   2.064       .  S
Cu849       N859   2.079       .  S
Cu850       N852   2.074       .  S
Cu850       N858   2.074       .  S
N851        N852   1.321       .  A
N851        C855   1.343       .  A
N852        C853   1.345       .  A
C853        C854   1.386       .  A
C853        H856   1.082       .  S
C854        C855   1.384       .  A
C854       C1363   1.490       .  S
C855        H857   1.082       .  S
N858        N859   1.323       .  A
N858        C862   1.344       .  A
N859        C860   1.347       .  A
C860        C861   1.384       .  A
C860        H863   1.082       .  S
C861        C862   1.382       .  A
C861       C1349   1.486       .  S
C862        H864   1.082       .  S
N865        N866   1.322       .  A
N865        C869   1.343       .  A
N865       Cu873   2.060       .  S
N866        C867   1.345       .  A
N866       Cu872   2.080       .  S
C867        C868   1.386       .  A
C867        H870   1.082       .  S
C868        C869   1.381       .  A
C868       C1335   1.485       .  S
C869        H871   1.082       .  S
Cu872       N875   2.081       .  S
Cu873       N883   2.060       .  S
Cu874       N876   2.070       .  S
Cu874       N882   2.069       .  S
N875        N876   1.323       .  A
N875        C879   1.346       .  A
N876        C877   1.345       .  A
C877        C878   1.381       .  A
C877        H880   1.082       .  S
C878        C879   1.383       .  A
C878       C1321   1.483       .  S
C879        H881   1.082       .  S
N882        N883   1.321       .  A
N882        C886   1.344       .  A
N883        C884   1.343       .  A
C884        C885   1.382       .  A
C884        H887   1.082       .  S
C885        C886   1.385       .  A
C885       C1828   1.485       .  S
C886        H888   1.082       .  S
N889        N890   1.320       .  A
N889        C893   1.345       .  A
N889       Cu897   2.074       .  S
N890        C891   1.343       .  A
N890       Cu896   2.064       .  S
C891        C892   1.384       .  A
C891        H894   1.082       .  S
C892        C893   1.387       .  A
C892       C1307   1.490       .  S
C893        H895   1.082       .  S
Cu896       N899   2.065       .  S
Cu897       N907   2.074       .  S
Cu898       N900   2.082       .  S
Cu898       N906   2.082       .  S
N899        N900   1.322       .  A
N899        C903   1.343       .  A
N900        C901   1.347       .  A
C901        C902   1.385       .  A
C901        H904   1.082       .  S
C902        C903   1.380       .  A
C902       C1324   1.485       .  S
C903        H905   1.082       .  S
N906        N907   1.322       .  A
N906        C910   1.346       .  A
N907        C908   1.344       .  A
C908        C909   1.387       .  A
C908        H911   1.082       .  S
C909        C910   1.389       .  A
C909       C1576   1.498       .  S
C910        H912   1.081       .  S
N913        N914   1.322       .  A
N913        C917   1.345       .  A
N913       Cu921   2.075       .  S
N914        C915   1.342       .  A
N914       Cu920   2.064       .  S
C915        C916   1.383       .  A
C915        H918   1.082       .  S
C916        C917   1.386       .  A
C916       C1293   1.488       .  S
C917        H919   1.082       .  S
Cu920       N923   2.064       .  S
Cu921       N931   2.075       .  S
Cu922       N924   2.062       .  S
Cu922       N930   2.062       .  S
N923        N924   1.320       .  A
N923        C927   1.343       .  A
N924        C925   1.344       .  A
C925        C926   1.383       .  A
C925        H928   1.082       .  S
C926        C927   1.384       .  A
C926       C1310   1.485       .  S
C927        H929   1.082       .  S
N930        N931   1.323       .  A
N930        C934   1.342       .  A
N931        C932   1.345       .  A
C932        C933   1.381       .  A
C932        H935   1.082       .  S
C933        C934   1.378       .  A
C933       C1279   1.476       .  S
C934        H936   1.082       .  S
N937        N938   1.321       .  A
N937        C941   1.346       .  A
N937       Cu945   2.072       .  S
N938        C939   1.342       .  A
N938       Cu944   2.065       .  S
C939        C940   1.382       .  A
C939        H942   1.082       .  S
C940        C941   1.385       .  A
C940       C1265   1.485       .  S
C941        H943   1.082       .  S
Cu944       N947   2.065       .  S
Cu945       N955   2.072       .  S
Cu946       N948   2.070       .  S
Cu946       N954   2.071       .  S
N947        N948   1.322       .  A
N947        C951   1.343       .  A
N948        C949   1.345       .  A
C949        C950   1.383       .  A
C949        H952   1.082       .  S
C950        C951   1.381       .  A
C950       C1296   1.482       .  S
C951        H953   1.082       .  S
N954        N955   1.323       .  A
N954        C958   1.346       .  A
N955        C956   1.342       .  A
C956        C957   1.382       .  A
C956        H959   1.082       .  S
C957        C958   1.383       .  A
C957       C1870   1.484       .  S
C958        H960   1.082       .  S
N961        N962   1.322       .  A
N961        C965   1.345       .  A
N961       Cu969   2.074       .  S
N962        C963   1.343       .  A
N962       Cu968   2.070       .  S
C963        C964   1.385       .  A
C963        H966   1.082       .  S
C964        C965   1.386       .  A
C964       C1251   1.490       .  S
C965        H967   1.082       .  S
Cu968       N971   2.070       .  S
Cu969       N979   2.074       .  S
Cu970       N972   2.066       .  S
Cu970       N978   2.066       .  S
N971        N972   1.322       .  A
N971        C975   1.345       .  A
N972        C973   1.343       .  A
C973        C974   1.381       .  A
C973        H976   1.082       .  S
C974        C975   1.382       .  A
C974       C1338   1.481       .  S
C975        H977   1.082       .  S
N978        N979   1.322       .  A
N978        C982   1.343       .  A
N979        C980   1.346       .  A
C980        C981   1.383       .  A
C980        H983   1.082       .  S
C981        C982   1.381       .  A
C981       C1240   1.481       .  S
C982        H984   1.082       .  S
N985        N986   1.322       .  A
N985        C989   1.345       .  A
N985       Cu993   2.070       .  S
N986        C987   1.344       .  A
N986       Cu992   2.072       .  S
C987        C988   1.384       .  A
C987        H990   1.082       .  S
C988        C989   1.384       .  A
C988       C1254   1.486       .  S
C989        H991   1.082       .  S
Cu992       N995   2.072       .  S
Cu993      N1003   2.070       .  S
Cu994       N996   2.070       .  S
Cu994      N1002   2.070       .  S
N995        N996   1.321       .  A
N995        C999   1.344       .  A
N996        C997   1.345       .  A
C997        C998   1.385       .  A
C997       H1000   1.082       .  S
C998        C999   1.385       .  A
C998       C1268   1.489       .  S
C999       H1001   1.082       .  S
N1002      N1003   1.322       .  A
N1002      C1006   1.344       .  A
N1003      C1004   1.344       .  A
C1004      C1005   1.382       .  A
C1004      H1007   1.082       .  S
C1005      C1006   1.383       .  A
C1005      C1674   1.483       .  S
C1006      H1008   1.082       .  S
N1009      N1010   1.321       .  A
N1009      C1013   1.342       .  A
N1009     Cu1017   2.069       .  S
N1010      C1011   1.346       .  A
N1010     Cu1016   2.074       .  S
C1011      C1012   1.388       .  A
C1011      H1014   1.082       .  S
C1012      C1013   1.385       .  A
C1012      C1212   1.494       .  S
C1013      H1015   1.082       .  S
Cu1016     N1019   2.075       .  S
Cu1017     N1027   2.069       .  S
Cu1018     N1020   2.080       .  S
Cu1018     N1026   2.080       .  S
N1019      N1020   1.323       .  A
N1019      C1023   1.345       .  A
N1020      C1021   1.345       .  A
C1021      C1022   1.386       .  A
C1021      H1024   1.082   1_545  S
C1022      C1023   1.386       .  A
C1022      C1223   1.494   1_545  S
C1023      H1025   1.082       .  S
N1026      N1027   1.321       .  A
N1026      C1030   1.347       .  A
N1027      C1028   1.343       .  A
C1028      C1029   1.385       .  A
C1028      H1031   1.082       .  S
C1029      C1030   1.389       .  A
C1029      C1492   1.495       .  S
C1030      H1032   1.082       .  S
N1033      N1034   1.322       .  A
N1033      C1037   1.348       .  A
N1033     Cu1041   2.082       .  S
N1034      C1035   1.342       .  A
N1034     Cu1040   2.064       .  S
C1035      C1036   1.381       .  A
C1035      H1038   1.082       .  S
C1036      C1037   1.387       .  A
C1036      C1209   1.487       .  S
C1037      H1039   1.082       .  S
Cu1040     N1043   2.064       .  S
Cu1041     N1051   2.082       .  S
Cu1042     N1044   2.072       .  S
Cu1042     N1050   2.073       .  S
N1043      N1044   1.321       .  A
N1043      C1047   1.343       .  A
N1044      C1045   1.345       .  A
C1045      C1046   1.385       .  A
C1045      H1048   1.082       .  S
C1046      C1047   1.383       .  A
C1046      C1195   1.486       .  S
C1047      H1049   1.082       .  S
N1050      N1051   1.324       .  A
N1050      C1054   1.344       .  A
N1051      C1052   1.346       .  A
C1052      C1053   1.384       .  A
C1052      H1055   1.082       .  S
C1053      C1054   1.382       .  A
C1053      C1237   1.486       .  S
C1054      H1056   1.082       .  S
N1057      N1058   1.321       .  A
N1057      C1061   1.345       .  A
N1057     Cu1065   2.072       .  S
N1058      C1059   1.344       .  A
N1058     Cu1064   2.068       .  S
C1059      C1060   1.383       .  A
C1059      H1062   1.082       .  S
C1060      C1061   1.385       .  A
C1060      C1181   1.487       .  S
C1061      H1063   1.082       .  S
Cu1064     N1067   2.068       .  S
Cu1065     N1075   2.072       .  S
Cu1066     N1068   2.082       .  S
Cu1066     N1074   2.082       .  S
N1067      N1068   1.322       .  A
N1067      C1071   1.344       .  A
N1068      C1069   1.346       .  A
C1069      C1070   1.386       .  A
C1069      H1072   1.082       .  S
C1070      C1071   1.384       .  A
C1070      C1226   1.490       .  S
C1071      H1073   1.082       .  S
N1074      N1075   1.322       .  A
N1074      C1078   1.346       .  A
N1075      C1076   1.344       .  A
C1076      C1077   1.386       .  A
C1076      H1079   1.082       .  S
C1077      C1078   1.388       .  A
C1077      C1422   1.496       .  S
C1078      H1080   1.082       .  S
N1081      N1082   1.322       .  A
N1081      C1085   1.346       .  A
N1081     Cu1089   2.076       .  S
N1082      C1083   1.344       .  A
N1082     Cu1088   2.067       .  S
C1083      C1084   1.383       .  A
C1083      H1086   1.082       .  S
C1084      C1085   1.385       .  A
C1084      C1198   1.486       .  S
C1085      H1087   1.082       .  S
Cu1088     N1091   2.067       .  S
Cu1089     N1099   2.076       .  S
Cu1090     N1092   2.073       .  S
Cu1090     N1098   2.074       .  S
N1091      N1092   1.322       .  A
N1091      C1095   1.343       .  A
N1092      C1093   1.345       .  A
C1093      C1094   1.385       .  A
C1093      H1096   1.082       .  S
C1094      C1095   1.383       .  A
C1094      C1170   1.486       .  S
C1095      H1097   1.082       .  S
N1098      N1099   1.322       .  A
N1098      C1102   1.344       .  A
N1099      C1100   1.345       .  A
C1100      C1101   1.385       .  A
C1100      H1103   1.082       .  S
C1101      C1102   1.384       .  A
C1101      C1352   1.489       .  S
C1102      H1104   1.082       .  S
N1105      N1106   1.322       .  A
N1105      C1109   1.345       .  A
N1105     Cu1113   2.075       .  S
N1106      C1107   1.342       .  A
N1106     Cu1112   2.064   1_545  S
C1107      C1108   1.383       .  A
C1107      H1110   1.082       .  S
C1108      C1109   1.386       .  A
C1108      C1167   1.488       .  S
C1109      H1111   1.082       .  S
Cu1112     N1115   2.063       .  S
Cu1113     N1123   2.075       .  S
Cu1114     N1116   2.062       .  S
Cu1114     N1122   2.063       .  S
N1115      N1116   1.320       .  A
N1115      C1119   1.343       .  A
N1116      C1117   1.343       .  A
C1117      C1118   1.383       .  A
C1117      H1120   1.082       .  S
C1118      C1119   1.384       .  A
C1118      C1153   1.484       .  S
C1119      H1121   1.082       .  S
N1122      N1123   1.322   1_565  A
N1122      C1126   1.343       .  A
N1123      C1124   1.345       .  A
C1124      C1125   1.385       .  A
C1124      H1127   1.082       .  S
C1125      C1126   1.383   1_545  A
C1125      C1464   1.487       .  S
C1126      H1128   1.082       .  S
N1129      N1130   1.321       .  A
N1129      C1133   1.342       .  A
N1129     Cu1137   2.061       .  S
N1130      C1131   1.343       .  A
N1130     Cu1136   2.068       .  S
C1131      C1132   1.384       .  A
C1131      H1134   1.082       .  S
C1132      C1133   1.382       .  A
C1132      C1156   1.484       .  S
C1133      H1135   1.082       .  S
Cu1136     N1139   2.069       .  S
Cu1137     N1147   2.061       .  S
Cu1138     N1140   2.068       .  S
Cu1138     N1146   2.068       .  S
N1139      N1140   1.322       .  A
N1139      C1143   1.345       .  A
N1140      C1141   1.343       .  A
C1141      C1142   1.383       .  A
C1141      H1144   1.082       .  S
C1142      C1143   1.383       .  A
C1142      C1184   1.484       .  S
C1143      H1145   1.082       .  S
N1146      N1147   1.321       .  A
N1146      C1150   1.343       .  A
N1147      C1148   1.343       .  A
C1148      C1149   1.383       .  A
C1148      H1151   1.082       .  S
C1149      C1150   1.384       .  A
C1149      C1282   1.484       .  S
C1150      H1152   1.082       .  S
C1153      C1154   1.414       .  A
C1153      C1158   1.414       .  A
C1154      C1155   1.409       .  A
C1154      C1159   1.452       .  S
C1155      C1156   1.414       .  A
C1155      C1162   1.452       .  S
C1156      C1157   1.413       .  A
C1157      C1158   1.409       .  A
C1157      C1160   1.452       .  S
C1158      C1161   1.452       .  S
C1159      N1166   1.157       .  T
C1160      N1165   1.157       .  T
C1161      N1163   1.157       .  T
C1162      N1164   1.157       .  T
C1167      C1168   1.414       .  A
C1167      C1172   1.415       .  A
C1168      C1169   1.410       .  A
C1168      C1173   1.452       .  S
C1169      C1170   1.414       .  A
C1169      C1176   1.451       .  S
C1170      C1171   1.413       .  A
C1171      C1172   1.410       .  A
C1171      C1174   1.452       .  S
C1172      C1175   1.451       .  S
C1173      N1180   1.157   1_545  T
C1174      N1179   1.157       .  T
C1175      N1177   1.157       .  T
C1176      N1178   1.157       .  T
C1181      C1182   1.414       .  A
C1181      C1186   1.415       .  A
C1182      C1183   1.409       .  A
C1182      C1187   1.451       .  S
C1183      C1184   1.413       .  A
C1183      C1190   1.452       .  S
C1184      C1185   1.412       .  A
C1185      C1186   1.411       .  A
C1185      C1188   1.452       .  S
C1186      C1189   1.451       .  S
C1187      N1194   1.157       .  T
C1188      N1193   1.157       .  T
C1189      N1191   1.157       .  T
C1190      N1192   1.157       .  T
C1195      C1196   1.413       .  A
C1195      C1200   1.414       .  A
C1196      C1197   1.411       .  A
C1196      C1201   1.451       .  S
C1197      C1198   1.414       .  A
C1197      C1204   1.451       .  S
C1198      C1199   1.413       .  A
C1199      C1200   1.411       .  A
C1199      C1202   1.451       .  S
C1200      C1203   1.451       .  S
C1201      N1208   1.157       .  T
C1202      N1207   1.157       .  T
C1203      N1205   1.157       .  T
C1204      N1206   1.157       .  T
C1209      C1210   1.411       .  A
C1209      C1214   1.413       .  A
C1210      C1211   1.411       .  A
C1210      C1215   1.451       .  S
C1211      C1212   1.417       .  A
C1211      C1218   1.451       .  S
C1212      C1213   1.417       .  A
C1213      C1214   1.411       .  A
C1213      C1216   1.451       .  S
C1214      C1217   1.452       .  S
C1215      N1222   1.157       .  T
C1216      N1221   1.158       .  T
C1217      N1219   1.157       .  T
C1218      N1220   1.157       .  T
C1223      C1224   1.417       .  A
C1223      C1228   1.416       .  A
C1224      C1225   1.412       .  A
C1224      C1229   1.452   1_565  S
C1225      C1226   1.414       .  A
C1225      C1232   1.452       .  S
C1226      C1227   1.413       .  A
C1227      C1228   1.412       .  A
C1227      C1230   1.451       .  S
C1228      C1231   1.451       .  S
C1229      N1236   1.158       .  T
C1230      N1235   1.157       .  T
C1231      N1233   1.157       .  T
C1232      N1234   1.157       .  T
C1237      C1238   1.414       .  A
C1237      C1242   1.415       .  A
C1238      C1239   1.411       .  A
C1238      C1243   1.451       .  S
C1239      C1240   1.411       .  A
C1239      C1246   1.451       .  S
C1240      C1241   1.411       .  A
C1241      C1242   1.410       .  A
C1241      C1244   1.452       .  S
C1242      C1245   1.451       .  S
C1243      N1250   1.157       .  T
C1244      N1249   1.157       .  T
C1245      N1247   1.157       .  T
C1246      N1248   1.157       .  T
C1251      C1252   1.415       .  A
C1251      C1256   1.416       .  A
C1252      C1253   1.411       .  A
C1252      C1257   1.451       .  S
C1253      C1254   1.413       .  A
C1253      C1260   1.451       .  S
C1254      C1255   1.413       .  A
C1255      C1256   1.410       .  A
C1255      C1258   1.452       .  S
C1256      C1259   1.452       .  S
C1257      N1264   1.157       .  T
C1258      N1263   1.157       .  T
C1259      N1261   1.157       .  T
C1260      N1262   1.157       .  T
C1265      C1266   1.412       .  A
C1265      C1270   1.413       .  A
C1266      C1267   1.410       .  A
C1266      C1271   1.452       .  S
C1267      C1268   1.416       .  A
C1267      C1274   1.451       .  S
C1268      C1269   1.414       .  A
C1269      C1270   1.411       .  A
C1269      C1272   1.451       .  S
C1270      C1273   1.451       .  S
C1271      N1278   1.157       .  T
C1272      N1277   1.157       .  T
C1273      N1275   1.157       .  T
C1274      N1276   1.157       .  T
C1279      C1280   1.409       .  A
C1279      C1284   1.410       .  A
C1280      C1281   1.409       .  A
C1280      C1285   1.451       .  S
C1281      C1282   1.415       .  A
C1281      C1288   1.451       .  S
C1282      C1283   1.415       .  A
C1283      C1284   1.408       .  A
C1283      C1286   1.451       .  S
C1284      C1287   1.452       .  S
C1285      N1292   1.157       .  T
C1286      N1291   1.157       .  T
C1287      N1289   1.157       .  T
C1288      N1290   1.157       .  T
C1293      C1294   1.416       .  A
C1293      C1298   1.415       .  A
C1294      C1295   1.410       .  A
C1294      C1299   1.451       .  S
C1295      C1296   1.412       .  A
C1295      C1302   1.452       .  S
C1296      C1297   1.412       .  A
C1297      C1298   1.409       .  A
C1297      C1300   1.452       .  S
C1298      C1301   1.451       .  S
C1299      N1306   1.157       .  T
C1300      N1305   1.157       .  T
C1301      N1303   1.157       .  T
C1302      N1304   1.157       .  T
C1307      C1308   1.416       .  A
C1307      C1312   1.416       .  A
C1308      C1309   1.410       .  A
C1308      C1313   1.451       .  S
C1309      C1310   1.413       .  A
C1309      C1316   1.452       .  S
C1310      C1311   1.412       .  A
C1311      C1312   1.410       .  A
C1311      C1314   1.452       .  S
C1312      C1315   1.452       .  S
C1313      N1320   1.157       .  T
C1314      N1319   1.157       .  T
C1315      N1317   1.157       .  T
C1316      N1318   1.157       .  T
C1321      C1322   1.411       .  A
C1321      C1326   1.413       .  A
C1322      C1323   1.411       .  A
C1322      C1327   1.451       .  S
C1323      C1324   1.413       .  A
C1323      C1330   1.451       .  S
C1324      C1325   1.413       .  A
C1325      C1326   1.411       .  A
C1325      C1328   1.451       .  S
C1326      C1329   1.451       .  S
C1327      N1334   1.157       .  T
C1328      N1333   1.157       .  T
C1329      N1331   1.157       .  T
C1330      N1332   1.157       .  T
C1335      C1336   1.415       .  A
C1335      C1340   1.413       .  A
C1336      C1337   1.410       .  A
C1336      C1341   1.451       .  S
C1337      C1338   1.411       .  A
C1337      C1344   1.451       .  S
C1338      C1339   1.412       .  A
C1339      C1340   1.410       .  A
C1339      C1342   1.451       .  S
C1340      C1343   1.451       .  S
C1341      N1348   1.157       .  T
C1342      N1347   1.157       .  T
C1343      N1345   1.157       .  T
C1344      N1346   1.157       .  T
C1349      C1350   1.412       .  A
C1349      C1354   1.412       .  A
C1350      C1351   1.411       .  A
C1350      C1355   1.451       .  S
C1351      C1352   1.415       .  A
C1351      C1358   1.451       .  S
C1352      C1353   1.415       .  A
C1353      C1354   1.411       .  A
C1353      C1356   1.451       .  S
C1354      C1357   1.451       .  S
C1355      N1362   1.157       .  T
C1356      N1361   1.157       .  T
C1357      N1359   1.157       .  T
C1358      N1360   1.157       .  T
C1363      C1364   1.415       .  A
C1363      C1368   1.416       .  A
C1364      C1365   1.412       .  A
C1364      C1369   1.451       .  S
C1365      C1366   1.413       .  A
C1365      C1372   1.451       .  S
C1366      C1367   1.414       .  A
C1367      C1368   1.409       .  A
C1367      C1370   1.453       .  S
C1368      C1371   1.451       .  S
C1369      N1376   1.157       .  T
C1370      N1375   1.157       .  T
C1371      N1373   1.157       .  T
C1372      N1374   1.157       .  T
C1377      C1378   1.414       .  A
C1377      C1382   1.415   1_655  A
C1378      C1379   1.409   1_655  A
C1378      C1383   1.451       .  S
C1379      C1380   1.413       .  A
C1379      C1386   1.452   1_455  S
C1380      C1381   1.410       .  A
C1381      C1382   1.411       .  A
C1381      C1384   1.451       .  S
C1382      C1385   1.451       .  S
C1383      N1390   1.157       .  T
C1384      N1389   1.157       .  T
C1385      N1387   1.157       .  T
C1386      N1388   1.157       .  T
C1391      C1392   1.415       .  A
C1391      C1396   1.415       .  A
C1392      C1393   1.412       .  A
C1392      C1397   1.451       .  S
C1393      C1394   1.413       .  A
C1393      C1400   1.452       .  S
C1394      C1395   1.414       .  A
C1395      C1396   1.410       .  A
C1395      C1398   1.452       .  S
C1396      C1399   1.452       .  S
C1397      N1404   1.157       .  T
C1398      N1403   1.157       .  T
C1399      N1401   1.157       .  T
C1400      N1402   1.157       .  T
C1405      C1406   1.412   1_565  A
C1405      C1410   1.411       .  A
C1406      C1407   1.410       .  A
C1406      C1411   1.452       .  S
C1407      C1408   1.416       .  A
C1407      C1414   1.451       .  S
C1408      C1409   1.416       .  A
C1409      C1410   1.411   1_545  A
C1409      C1412   1.451   1_545  S
C1410      C1413   1.451       .  S
C1411      N1418   1.157       .  T
C1412      N1417   1.157       .  T
C1413      N1415   1.157       .  T
C1414      N1416   1.157       .  T
C1419      C1420   1.414       .  A
C1419      C1424   1.413       .  A
C1420      C1421   1.413       .  A
C1420      C1425   1.451       .  S
C1421      C1422   1.416       .  A
C1421      C1428   1.451       .  S
C1422      C1423   1.417       .  A
C1423      C1424   1.412       .  A
C1423      C1426   1.452       .  S
C1424      C1427   1.452       .  S
C1425      N1432   1.157       .  T
C1426      N1431   1.158       .  T
C1427      N1429   1.157       .  T
C1428      N1430   1.157       .  T
C1433      C1434   1.414       .  A
C1433      C1438   1.413       .  A
C1434      C1435   1.412       .  A
C1434      C1439   1.451       .  S
C1435      C1436   1.412       .  A
C1435      C1442   1.451       .  S
C1436      C1437   1.413       .  A
C1437      C1438   1.412       .  A
C1437      C1440   1.451       .  S
C1438      C1441   1.450       .  S
C1439      N1446   1.157       .  T
C1440      N1445   1.157   1_565  T
C1441      N1443   1.157       .  T
C1442      N1444   1.157       .  T
C1447      C1448   1.415       .  A
C1447      C1452   1.415       .  A
C1448      C1449   1.414       .  A
C1448      C1453   1.451       .  S
C1449      C1450   1.414       .  A
C1449      C1456   1.451       .  S
C1450      C1451   1.415       .  A
C1451      C1452   1.412       .  A
C1451      C1454   1.452       .  S
C1452      C1455   1.452       .  S
C1453      N1460   1.157       .  T
C1454      N1459   1.157       .  T
C1455      N1457   1.157       .  T
C1456      N1458   1.157       .  T
C1461      C1462   1.414       .  A
C1461      C1466   1.413       .  A
C1462      C1463   1.410       .  A
C1462      C1467   1.452       .  S
C1463      C1464   1.414       .  A
C1463      C1470   1.452       .  S
C1464      C1465   1.415       .  A
C1465      C1466   1.410       .  A
C1465      C1468   1.452       .  S
C1466      C1469   1.452       .  S
C1467      N1474   1.157       .  T
C1468      N1473   1.157       .  T
C1469      N1471   1.157       .  T
C1470      N1472   1.157       .  T
C1475      C1476   1.414       .  A
C1475      C1480   1.413       .  A
C1476      C1477   1.411       .  A
C1476      C1481   1.452       .  S
C1477      C1478   1.416       .  A
C1477      C1484   1.451       .  S
C1478      C1479   1.416       .  A
C1479      C1480   1.411       .  A
C1479      C1482   1.451       .  S
C1480      C1483   1.452       .  S
C1481      N1488   1.157       .  T
C1482      N1487   1.157       .  T
C1483      N1485   1.157       .  T
C1484      N1486   1.157       .  T
C1489      C1490   1.414       .  A
C1489      C1494   1.416       .  A
C1490      C1491   1.412       .  A
C1490      C1495   1.451       .  S
C1491      C1492   1.416       .  A
C1491      C1498   1.452       .  S
C1492      C1493   1.415       .  A
C1493      C1494   1.413       .  A
C1493      C1496   1.451   1_545  S
C1494      C1497   1.451   1_545  S
C1495      N1502   1.157       .  T
C1496      N1501   1.157       .  T
C1497      N1499   1.157       .  T
C1498      N1500   1.157       .  T
C1503      C1504   1.417       .  A
C1503      C1508   1.417       .  A
C1504      C1505   1.412       .  A
C1504      C1509   1.452       .  S
C1505      C1506   1.416       .  A
C1505      C1512   1.452       .  S
C1506      C1507   1.414       .  A
C1507      C1508   1.413       .  A
C1507      C1510   1.451       .  S
C1508      C1511   1.451       .  S
C1509      N1516   1.158       .  T
C1510      N1515   1.157       .  T
C1511      N1513   1.157       .  T
C1512      N1514   1.158       .  T
C1517      C1518   1.416       .  A
C1517      C1522   1.415       .  A
C1518      C1519   1.412       .  A
C1518      C1523   1.451       .  S
C1519      C1520   1.413       .  A
C1519      C1526   1.452       .  S
C1520      C1521   1.414       .  A
C1521      C1522   1.411       .  A
C1521      C1524   1.452       .  S
C1522      C1525   1.452       .  S
C1523      N1530   1.157       .  T
C1524      N1529   1.157       .  T
C1525      N1527   1.157       .  T
C1526      N1528   1.157       .  T
C1531      C1532   1.414       .  A
C1531      C1536   1.413       .  A
C1532      C1533   1.408       .  A
C1532      C1537   1.452       .  S
C1533      C1534   1.414       .  A
C1533      C1540   1.452       .  S
C1534      C1535   1.414       .  A
C1535      C1536   1.412       .  A
C1535      C1538   1.451       .  S
C1536      C1539   1.451       .  S
C1537      N1544   1.157       .  T
C1538      N1543   1.157       .  T
C1539      N1541   1.157       .  T
C1540      N1542   1.157       .  T
C1545      C1546   1.413       .  A
C1545      C1550   1.412       .  A
C1546      C1547   1.411       .  A
C1546      C1551   1.451   1_565  S
C1547      C1548   1.412       .  A
C1547      C1554   1.451       .  S
C1548      C1549   1.414       .  A
C1549      C1550   1.408       .  A
C1549      C1552   1.452       .  S
C1550      C1553   1.452       .  S
C1551      N1558   1.157       .  T
C1552      N1557   1.157       .  T
C1553      N1555   1.157       .  T
C1554      N1556   1.157       .  T
C1559      C1560   1.418       .  A
C1559      C1564   1.417   1_554  A
C1560      C1561   1.411   1_554  A
C1560      C1565   1.452       .  S
C1561      C1562   1.414       .  A
C1561      C1568   1.452       .  S
C1562      C1563   1.413       .  A
C1563      C1564   1.410       .  A
C1563      C1566   1.452       .  S
C1564      C1567   1.451   1_556  S
C1565      N1572   1.158       .  T
C1566      N1571   1.157       .  T
C1567      N1569   1.157       .  T
C1568      N1570   1.157       .  T
C1573      C1574   1.414       .  A
C1573      C1578   1.414       .  A
C1574      C1575   1.413       .  A
C1574      C1579   1.452       .  S
C1575      C1576   1.418       .  A
C1575      C1582   1.451       .  S
C1576      C1577   1.418       .  A
C1577      C1578   1.413       .  A
C1577      C1580   1.452       .  S
C1578      C1581   1.452       .  S
C1579      N1586   1.157       .  T
C1580      N1585   1.158       .  T
C1581      N1583   1.157       .  T
C1582      N1584   1.158       .  T
C1587      C1588   1.412       .  A
C1587      C1592   1.414       .  A
C1588      C1589   1.411       .  A
C1588      C1593   1.451       .  S
C1589      C1590   1.415       .  A
C1589      C1596   1.451       .  S
C1590      C1591   1.415       .  A
C1591      C1592   1.411       .  A
C1591      C1594   1.452       .  S
C1592      C1595   1.451       .  S
C1593      N1600   1.157       .  T
C1594      N1599   1.157       .  T
C1595      N1597   1.157       .  T
C1596      N1598   1.157       .  T
C1601      C1602   1.416       .  A
C1601      C1606   1.415       .  A
C1602      C1603   1.412       .  A
C1602      C1607   1.451       .  S
C1603      C1604   1.412       .  A
C1603      C1610   1.451       .  S
C1604      C1605   1.413       .  A
C1605      C1606   1.412       .  A
C1605      C1608   1.452       .  S
C1606      C1609   1.451       .  S
C1607      N1614   1.157       .  T
C1608      N1613   1.157       .  T
C1609      N1611   1.157       .  T
C1610      N1612   1.157       .  T
C1615      C1616   1.413       .  A
C1615      C1620   1.412       .  A
C1616      C1617   1.411       .  A
C1616      C1621   1.452       .  S
C1617      C1618   1.415       .  A
C1617      C1624   1.451       .  S
C1618      C1619   1.415       .  A
C1619      C1620   1.412       .  A
C1619      C1622   1.451       .  S
C1620      C1623   1.451       .  S
C1621      N1628   1.157       .  T
C1622      N1627   1.157       .  T
C1623      N1625   1.157       .  T
C1624      N1626   1.157       .  T
C1629      C1630   1.416       .  A
C1629      C1634   1.416       .  A
C1630      C1631   1.410       .  A
C1630      C1635   1.452       .  S
C1631      C1632   1.412       .  A
C1631      C1638   1.452       .  S
C1632      C1633   1.413       .  A
C1633      C1634   1.412       .  A
C1633      C1636   1.451       .  S
C1634      C1637   1.451       .  S
C1635      N1642   1.157       .  T
C1636      N1641   1.157       .  T
C1637      N1639   1.157       .  T
C1638      N1640   1.157       .  T
C1643      C1644   1.415       .  A
C1643      C1648   1.414       .  A
C1644      C1645   1.409       .  A
C1644      C1649   1.452       .  S
C1645      C1646   1.415       .  A
C1645      C1652   1.452       .  S
C1646      C1647   1.414       .  A
C1647      C1648   1.412       .  A
C1647      C1650   1.451       .  S
C1648      C1651   1.451       .  S
C1649      N1656   1.157       .  T
C1650      N1655   1.157       .  T
C1651      N1653   1.157       .  T
C1652      N1654   1.157   1_556  T
C1657      C1658   1.416       .  A
C1657      C1662   1.417       .  A
C1658      C1659   1.411       .  A
C1658      C1663   1.451       .  S
C1659      C1660   1.413       .  A
C1659      C1666   1.452       .  S
C1660      C1661   1.412       .  A
C1661      C1662   1.413       .  A
C1661      C1664   1.451       .  S
C1662      C1665   1.451       .  S
C1663      N1670   1.157       .  T
C1664      N1669   1.157       .  T
C1665      N1667   1.157   1_554  T
C1666      N1668   1.157       .  T
C1671      C1672   1.413       .  A
C1671      C1676   1.413       .  A
C1672      C1673   1.409       .  A
C1672      C1677   1.452       .  S
C1673      C1674   1.413       .  A
C1673      C1680   1.451       .  S
C1674      C1675   1.413       .  A
C1675      C1676   1.411       .  A
C1675      C1678   1.451       .  S
C1676      C1679   1.451       .  S
C1677      N1684   1.157       .  T
C1678      N1683   1.157       .  T
C1679      N1681   1.157       .  T
C1680      N1682   1.157       .  T
C1685      C1686   1.412       .  A
C1685      C1690   1.415       .  A
C1686      C1687   1.410       .  A
C1686      C1691   1.451       .  S
C1687      C1688   1.414       .  A
C1687      C1694   1.451       .  S
C1688      C1689   1.413       .  A
C1689      C1690   1.410       .  A
C1689      C1692   1.452       .  S
C1690      C1693   1.452       .  S
C1691      N1698   1.157       .  T
C1692      N1697   1.157       .  T
C1693      N1695   1.157       .  T
C1694      N1696   1.157       .  T
C1699      C1700   1.415       .  A
C1699      C1704   1.414       .  A
C1700      C1701   1.411       .  A
C1700      C1705   1.451       .  S
C1701      C1702   1.414       .  A
C1701      C1708   1.452       .  S
C1702      C1703   1.414       .  A
C1703      C1704   1.411       .  A
C1703      C1706   1.451       .  S
C1704      C1707   1.451       .  S
C1705      N1712   1.157       .  T
C1706      N1711   1.157       .  T
C1707      N1709   1.157       .  T
C1708      N1710   1.157       .  T
C1713      C1714   1.412       .  A
C1713      C1718   1.412       .  A
C1714      C1715   1.412   1_554  A
C1714      C1719   1.452       .  S
C1715      C1716   1.417       .  A
C1715      C1722   1.451       .  S
C1716      C1717   1.416   1_556  A
C1717      C1718   1.411       .  A
C1717      C1720   1.451       .  S
C1718      C1721   1.452       .  S
C1719      N1726   1.157       .  T
C1720      N1725   1.157       .  T
C1721      N1723   1.157       .  T
C1722      N1724   1.157       .  T
C1727      C1728   1.413       .  A
C1727      C1732   1.414       .  A
C1728      C1729   1.410       .  A
C1728      C1733   1.451       .  S
C1729      C1730   1.414       .  A
C1729      C1736   1.452       .  S
C1730      C1731   1.413       .  A
C1731      C1732   1.410       .  A
C1731      C1734   1.452       .  S
C1732      C1735   1.451       .  S
C1733      N1740   1.157       .  T
C1734      N1739   1.157       .  T
C1735      N1737   1.157       .  T
C1736      N1738   1.157       .  T
C1741      C1742   1.416       .  A
C1741      C1746   1.415   1_554  A
C1742      C1743   1.410       .  A
C1742      C1747   1.452       .  S
C1743      C1744   1.414   1_554  A
C1743      C1750   1.452       .  S
C1744      C1745   1.413       .  A
C1745      C1746   1.411       .  A
C1745      C1748   1.451       .  S
C1746      C1749   1.451       .  S
C1747      N1754   1.157       .  T
C1748      N1753   1.157       .  T
C1749      N1751   1.157       .  T
C1750      N1752   1.157       .  T
C1755      C1756   1.415       .  A
C1755      C1760   1.414       .  A
C1756      C1757   1.410       .  A
C1756      C1761   1.451       .  S
C1757      C1758   1.410       .  A
C1757      C1764   1.451       .  S
C1758      C1759   1.411       .  A
C1759      C1760   1.408       .  A
C1759      C1762   1.452       .  S
C1760      C1763   1.451       .  S
C1761      N1768   1.157       .  T
C1762      N1767   1.157       .  T
C1763      N1765   1.157       .  T
C1764      N1766   1.157   1_554  T
C1769      C1770   1.413       .  A
C1769      C1774   1.411       .  A
C1770      C1771   1.409       .  A
C1770      C1775   1.452       .  S
C1771      C1772   1.413       .  A
C1771      C1778   1.452       .  S
C1772      C1773   1.414       .  A
C1773      C1774   1.410       .  A
C1773      C1776   1.451       .  S
C1774      C1777   1.451   1_455  S
C1775      N1782   1.157       .  T
C1776      N1781   1.157       .  T
C1777      N1779   1.157       .  T
C1778      N1780   1.157       .  T
C1783      C1784   1.414       .  A
C1783      C1788   1.412       .  A
C1784      C1785   1.408       .  A
C1784      C1789   1.452       .  S
C1785      C1786   1.412       .  A
C1785      C1792   1.452       .  S
C1786      C1787   1.413       .  A
C1787      C1788   1.412       .  A
C1787      C1790   1.451       .  S
C1788      C1791   1.451       .  S
C1789      N1796   1.157       .  T
C1790      N1795   1.157       .  T
C1791      N1793   1.157       .  T
C1792      N1794   1.157       .  T
C1797      C1798   1.412       .  A
C1797      C1802   1.413       .  A
C1798      C1799   1.412       .  A
C1798      C1803   1.451   1_556  S
C1799      C1800   1.415       .  A
C1799      C1806   1.451       .  S
C1800      C1801   1.415       .  A
C1801      C1802   1.410       .  A
C1801      C1804   1.451       .  S
C1802      C1805   1.452       .  S
C1803      N1810   1.157       .  T
C1804      N1809   1.157       .  T
C1805      N1807   1.157       .  T
C1806      N1808   1.157       .  T
C1811      C1812   1.413       .  A
C1811      C1816   1.413       .  A
C1812      C1813   1.412       .  A
C1812      C1817   1.451   1_655  S
C1813      C1814   1.416       .  A
C1813      C1820   1.452       .  S
C1814      C1815   1.415       .  A
C1815      C1816   1.412       .  A
C1815      C1818   1.451       .  S
C1816      C1819   1.451       .  S
C1817      N1824   1.157       .  T
C1818      N1823   1.157       .  T
C1819      N1821   1.157       .  T
C1820      N1822   1.157       .  T
C1825      C1826   1.410       .  A
C1825      C1830   1.411       .  A
C1826      C1827   1.410       .  A
C1826      C1831   1.451       .  S
C1827      C1828   1.415       .  A
C1827      C1834   1.451       .  S
C1828      C1829   1.415       .  A
C1829      C1830   1.408       .  A
C1829      C1832   1.451       .  S
C1830      C1833   1.452       .  S
C1831      N1838   1.157       .  T
C1832      N1837   1.157       .  T
C1833      N1835   1.157       .  T
C1834      N1836   1.157       .  T
C1839      C1840   1.412       .  A
C1839      C1844   1.413   1_455  A
C1840      C1841   1.410       .  A
C1840      C1845   1.452       .  S
C1841      C1842   1.415       .  A
C1841      C1848   1.451       .  S
C1842      C1843   1.414       .  A
C1843      C1844   1.410   1_455  A
C1843      C1846   1.452   1_455  S
C1844      C1847   1.452       .  S
C1845      N1852   1.157       .  T
C1846      N1851   1.157       .  T
C1847      N1849   1.157       .  T
C1848      N1850   1.157       .  T
C1853      C1854   1.414       .  A
C1853      C1858   1.412       .  A
C1854      C1855   1.412       .  A
C1854      C1859   1.452       .  S
C1855      C1856   1.416       .  A
C1855      C1862   1.451       .  S
C1856      C1857   1.416       .  A
C1857      C1858   1.410       .  A
C1857      C1860   1.452       .  S
C1858      C1861   1.451       .  S
C1859      N1866   1.157       .  T
C1860      N1865   1.157       .  T
C1861      N1863   1.157       .  T
C1862      N1864   1.157       .  T
C1867      C1868   1.413       .  A
C1867      C1872   1.411       .  A
C1868      C1869   1.408       .  A
C1868      C1873   1.451       .  S
C1869      C1870   1.413       .  A
C1869      C1876   1.452       .  S
C1870      C1871   1.413       .  A
C1871      C1872   1.411       .  A
C1871      C1874   1.451       .  S
C1872      C1875   1.451       .  S
C1873      N1880   1.157       .  T
C1874      N1879   1.157       .  T
C1875      N1877   1.157       .  T
C1876      N1878   1.157       .  T
C1881      C1882   1.416       .  A
C1881      C1886   1.417       .  A
C1882      C1883   1.410       .  A
C1882      C1887   1.451   1_455  S
C1883      C1884   1.413       .  A
C1883      C1890   1.452   1_455  S
C1884      C1885   1.413       .  A
C1885      C1886   1.414       .  A
C1885      C1888   1.451       .  S
C1886      C1889   1.451       .  S
C1887      N1894   1.157       .  T
C1888      N1893   1.157       .  T
C1889      N1891   1.157       .  T
C1890      N1892   1.157       .  T
C1895      C1896   1.412       .  A
C1895      C1900   1.411       .  A
C1896      C1897   1.409       .  A
C1896      C1901   1.451       .  S
C1897      C1898   1.413       .  A
C1897      C1904   1.451       .  S
C1898      C1899   1.414       .  A
C1899      C1900   1.411       .  A
C1899      C1902   1.451       .  S
C1900      C1903   1.451       .  S
C1901      N1908   1.157       .  T
C1902      N1907   1.157       .  T
C1903      N1905   1.157       .  T
C1904      N1906   1.157       .  T
C1909      C1910   1.415       .  A
C1909      C1914   1.415       .  A
C1910      C1911   1.410       .  A
C1910      C1915   1.451       .  S
C1911      C1912   1.413       .  A
C1911      C1918   1.452       .  S
C1912      C1913   1.412       .  A
C1913      C1914   1.409       .  A
C1913      C1916   1.452       .  S
C1914      C1917   1.452       .  S
C1915      N1922   1.157       .  T
C1916      N1921   1.157       .  T
C1917      N1919   1.157       .  T
C1918      N1920   1.157       .  T
C1923      C1924   1.415       .  A
C1923      C1928   1.415       .  A
C1924      C1925   1.412       .  A
C1924      C1929   1.451       .  S
C1925      C1926   1.413       .  A
C1925      C1932   1.451       .  S
C1926      C1927   1.414       .  A
C1927      C1928   1.409       .  A
C1927      C1930   1.452       .  S
C1928      C1931   1.452       .  S
C1929      N1936   1.157       .  T
C1930      N1935   1.157       .  T
C1931      N1933   1.157       .  T
C1932      N1934   1.157       .  T
C1937      C1938   1.411       .  A
C1937      C1942   1.412       .  A
C1938      C1939   1.410       .  A
C1938      C1943   1.451       .  S
C1939      C1940   1.413       .  A
C1939      C1946   1.451       .  S
C1940      C1941   1.412       .  A
C1941      C1942   1.408       .  A
C1941      C1944   1.452       .  S
C1942      C1945   1.452       .  S
C1943      N1950   1.157       .  T
C1944      N1949   1.157       .  T
C1945      N1947   1.157       .  T
C1946      N1948   1.157       .  T
C1951      C1952   1.413       .  A
C1951      C1956   1.412       .  A
C1952      C1953   1.410       .  A
C1952      C1957   1.452       .  S
C1953      C1954   1.415       .  A
C1953      C1960   1.451       .  S
C1954      C1955   1.416       .  A
C1955      C1956   1.411       .  A
C1955      C1958   1.451       .  S
C1956      C1959   1.452       .  S
C1957      N1964   1.157       .  T
C1958      N1963   1.157       .  T
C1959      N1961   1.157       .  T
C1960      N1962   1.157       .  T
C1965      C1966   1.413       .  A
C1965      C1970   1.413       .  A
C1966      C1967   1.411       .  A
C1966      C1971   1.451       .  S
C1967      C1968   1.414       .  A
C1967      C1974   1.451       .  S
C1968      C1969   1.413       .  A
C1969      C1970   1.412       .  A
C1969      C1972   1.451   1_655  S
C1970      C1973   1.451       .  S
C1971      N1978   1.157       .  T
C1972      N1977   1.157       .  T
C1973      N1975   1.157       .  T
C1974      N1976   1.157       .  T
C1979      C1980   1.413       .  A
C1979      C1984   1.415       .  A
C1980      C1981   1.410       .  A
C1980      C1985   1.451       .  S
C1981      C1982   1.413       .  A
C1981      C1988   1.451       .  S
C1982      C1983   1.413       .  A
C1983      C1984   1.412       .  A
C1983      C1986   1.451       .  S
C1984      C1987   1.451       .  S
C1985      N1992   1.157       .  T
C1986      N1991   1.157       .  T
C1987      N1989   1.157       .  T
C1988      N1990   1.157       .  T
C1993      C1994   1.414       .  A
C1993      C1998   1.413       .  A
C1994      C1995   1.408       .  A
C1994      C1999   1.452   1_655  S
C1995      C1996   1.415       .  A
C1995      C2002   1.452   1_655  S
C1996      C1997   1.416       .  A
C1997      C1998   1.411       .  A
C1997      C2000   1.452       .  S
C1998      C2001   1.451       .  S
C1999      N2006   1.157       .  T
C2000      N2005   1.157       .  T
C2001      N2003   1.157       .  T
C2002      N2004   1.157       .  T
C2007      C2008   1.413       .  A
C2007      C2012   1.416   1_565  A
C2008      C2009   1.409       .  A
C2008      C2013   1.452       .  S
C2009      C2010   1.413   1_565  A
C2009      C2016   1.451       .  S
C2010      C2011   1.411       .  A
C2011      C2012   1.410       .  A
C2011      C2014   1.452       .  S
C2012      C2015   1.451       .  S
C2013      N2020   1.157       .  T
C2014      N2019   1.157       .  T
C2015      N2017   1.157       .  T
C2016      N2018   1.157       .  T
C2021      C2022   1.413       .  A
C2021      C2026   1.413       .  A
C2022      C2023   1.413       .  A
C2022      C2027   1.451       .  S
C2023      C2024   1.413       .  A
C2023      C2030   1.451       .  S
C2024      C2025   1.414       .  A
C2025      C2026   1.408       .  A
C2025      C2028   1.452       .  S
C2026      C2029   1.452       .  S
C2027      N2034   1.157       .  T
C2028      N2033   1.157       .  T
C2029      N2031   1.157       .  T
C2030      N2032   1.157       .  T
C2035      C2036   1.412       .  A
C2035      C2040   1.412       .  A
C2036      C2037   1.409       .  A
C2036      C2041   1.452       .  S
C2037      C2038   1.415       .  A
C2037      C2044   1.452       .  S
C2038      C2039   1.414       .  A
C2039      C2040   1.411       .  A
C2039      C2042   1.451       .  S
C2040      C2043   1.451       .  S
C2041      N2048   1.157       .  T
C2042      N2047   1.157       .  T
C2043      N2045   1.157       .  T
C2044      N2046   1.157       .  T
C2049      C2050   1.414       .  A
C2049      C2054   1.415       .  A
C2050      C2051   1.412       .  A
C2050      C2055   1.451       .  S
C2051      C2052   1.414       .  A
C2051      C2058   1.451       .  S
C2052      C2053   1.415       .  A
C2053      C2054   1.408       .  A
C2053      C2056   1.452       .  S
C2054      C2057   1.453       .  S
C2055      N2062   1.157       .  T
C2056      N2061   1.158       .  T
C2057      N2059   1.157       .  T
C2058      N2060   1.157       .  T
C2063      C2064   1.414       .  A
C2063      C2068   1.416       .  A
C2064      C2065   1.410       .  A
C2064      C2069   1.452       .  S
C2065      C2066   1.414       .  A
C2065      C2072   1.452       .  S
C2066      C2067   1.414       .  A
C2067      C2068   1.411       .  A
C2067      C2070   1.452       .  S
C2068      C2071   1.452       .  S
C2069      N2076   1.157       .  T
C2070      N2075   1.157       .  T
C2071      N2073   1.157       .  T
C2072      N2074   1.157       .  T
C2077      C2078   1.413       .  A
C2077      C2082   1.414       .  A
C2078      C2079   1.410       .  A
C2078      C2083   1.452       .  S
C2079      C2080   1.416       .  A
C2079      C2086   1.451       .  S
C2080      C2081   1.416       .  A
C2081      C2082   1.412       .  A
C2081      C2084   1.452       .  S
C2082      C2085   1.451       .  S
C2083      N2090   1.157       .  T
C2084      N2089   1.157       .  T
C2085      N2087   1.157       .  T
C2086      N2088   1.157       .  T
C2091      C2092   1.410       .  A
C2091      C2096   1.411       .  A
C2092      C2093   1.411       .  A
C2092      C2097   1.452       .  S
C2093      C2094   1.418       .  A
C2093      C2100   1.451       .  S
C2094      C2095   1.416       .  A
C2095      C2096   1.412       .  A
C2095      C2098   1.451       .  S
C2096      C2099   1.451       .  S
C2097      N2104   1.157       .  T
C2098      N2103   1.157       .  T
C2099      N2101   1.157       .  T
C2100      N2102   1.157       .  T
C2105      C2106   1.416       .  A
C2105      C2110   1.416       .  A
C2106      C2107   1.408       .  A
C2106      C2111   1.452       .  S
C2107      C2108   1.412       .  A
C2107      C2114   1.452       .  S
C2108      C2109   1.412       .  A
C2109      C2110   1.412       .  A
C2109      C2112   1.451       .  S
C2110      C2113   1.451       .  S
C2111      N2118   1.157       .  T
C2112      N2117   1.157       .  T
C2113      N2115   1.157       .  T
C2114      N2116   1.157   1_545  T
C2119      C2120   1.414       .  A
C2119      C2124   1.413       .  A
C2120      C2121   1.413       .  A
C2120      C2125   1.451   1_455  S
C2121      C2122   1.415       .  A
C2121      C2128   1.451       .  S
C2122      C2123   1.416       .  A
C2123      C2124   1.413       .  A
C2123      C2126   1.451       .  S
C2124      C2127   1.451       .  S
C2125      N2132   1.157       .  T
C2126      N2131   1.157       .  T
C2127      N2129   1.157       .  T
C2128      N2130   1.157       .  T
C2133      C2134   1.416       .  A
C2133      C2138   1.417   1_556  A
C2134      C2135   1.414   1_556  A
C2134      C2139   1.450       .  S
C2135      C2136   1.414       .  A
C2135      C2142   1.451       .  S
C2136      C2137   1.415       .  A
C2137      C2138   1.412       .  A
C2137      C2140   1.452       .  S
C2138      C2141   1.452   1_554  S
C2139      N2146   1.157       .  T
C2140      N2145   1.158       .  T
C2141      N2143   1.157       .  T
C2142      N2144   1.157       .  T
C2147      C2148   1.417       .  A
C2147      C2152   1.416       .  A
C2148      C2149   1.410       .  A
C2148      C2153   1.451       .  S
C2149      C2150   1.409       .  A
C2149      C2156   1.452       .  S
C2150      C2151   1.410       .  A
C2151      C2152   1.411       .  A
C2151      C2154   1.451       .  S
C2152      C2155   1.451   1_455  S
C2153      N2160   1.157       .  T
C2154      N2159   1.157       .  T
C2155      N2157   1.157       .  T
C2156      N2158   1.157       .  T
