geometry optimzed in LAMMPS
_audit_creation_date              2020-11-30 
_audit_creation_method            'lammps2cif' 
_symmetry_space_group_name_H-M    'P1' 
_symmetry_Int_Tables_number       1 
_symmetry_cell_setting            triclinic 
loop_ 
_symmetry_equiv_pos_as_xyz 
  x,y,z 
_cell_length_a                    26.37172064 
_cell_length_b                    29.366756502397642 
_cell_length_c                    29.847781860948448 
_cell_angle_alpha                 89.74748911090522 
_cell_angle_beta                  90.633856940651 
_cell_angle_gamma                 89.96388952433072 
loop_ 
_atom_site_label 
_atom_site_type_symbol 
_atom_site_fract_x 
_atom_site_fract_y 
_atom_site_fract_z 
_atom_site_charge 
C1          C  0.87996400  0.85640272  0.79600769     0.79400
N2          N  0.83507171  0.87527573  0.80783042    -0.78900
C3          C  0.81063562  0.86037924  0.84495129     0.81900
N4          N  0.83075898  0.82607447  0.86980147    -0.78800
C5          C  0.87545614  0.80705906  0.85818187     0.82000
N6          N  0.90041892  0.82292321  0.82180067    -0.80500
C7          C  0.86195960  0.73090207  0.27657275     0.79400
N8          N  0.82848698  0.70618610  0.30058398    -0.78900
C9          C  0.81026610  0.72214813  0.33959333     0.81900
N10         N  0.82559683  0.76334190  0.35482787    -0.78800
C11         C  0.85876811  0.78892888  0.33097104     0.82000
N12         N  0.87756539  0.77206855  0.29212828    -0.80500
Zr13       Zr  0.04527967  0.44572302  0.01214676     2.17500
O14         O  0.01283267  0.37189646  0.03484341    -0.52100
O15         O  0.09605058  0.41687528  0.95097421    -0.75300
O16         O  0.97993554  0.41880598  0.95909697    -0.82100
O17         O  0.12693673  0.44539235  0.11753336    -0.83900
O18         O  0.94347152  0.48079823  0.92641253    -0.79500
O19         O  0.09417518  0.39799917  0.06455589    -0.91100
O20         O  0.13833840  0.47764918  0.92275220    -0.77100
O21         O  0.04853584  0.50221633  0.95491766    -0.86600
O22         O  0.12187311  0.48787780  0.02372349    -0.86300
O23         O  0.96955881  0.49007933  0.02162528    -0.73000
O24         O  0.03910713  0.47898175  0.08528116    -0.85100
Zr25       Zr  0.04201972  0.62358302  0.04778961     2.26400
Zr26       Zr  0.97445952  0.54712764  0.96448986     2.06300
Zr27       Zr  0.11452430  0.52302158  0.09537671     2.10000
Zr28       Zr  0.12395067  0.54487773  0.96718218     1.78800
O29         O  0.12596329  0.51107324  0.17565771    -0.94000
O30         O  0.12585545  0.56737098  0.88839096    -0.41800
O31         O  0.11871807  0.58056009  0.03891954    -0.78400
O32         O  0.04978853  0.59116573  0.97450467    -0.97100
O33         O  0.96629434  0.58082854  0.03656472    -0.90400
O34         O  0.04014737  0.56755222  0.10571798    -0.93200
C35         C  0.12483562  0.43571212  0.92190102     1.00500
C36         C  0.11891240  0.40585376  0.10117343     1.13500
C37         C  0.94851915  0.43780360  0.93144613     1.04200
O38         O  0.98596052  0.56126657  0.88475224    -0.95400
O39         O  0.94902715  0.62425467  0.95047901    -0.91100
O40         O  0.99047676  0.67141025  0.99882505    -0.84300
C41         C  0.96031750  0.66364395  0.96573632     1.10900
O42         O  0.92062020  0.45380886  0.11130286    -0.97400
Zr43       Zr  0.96492062  0.52451824  0.09389624     1.88900
O44         O  0.98792814  0.65252190  0.10600788    -0.74000
O45         O  0.88198754  0.54865260  0.96070424    -0.53300
O46         O  0.87373406  0.53160308  0.08179903    -0.97900
O47         O  0.97559801  0.50363057  0.17258103    -0.55200
O48         O  0.94047178  0.59361679  0.13192074    -0.74500
C49         C  0.95441312  0.63546773  0.13184576     0.97800
O50         O  0.07034782  0.69947486  0.02609037    -0.63300
O51         O  0.20563625  0.51485264  0.08602498    -0.58100
O52         O  0.10765017  0.65242213  0.09782559    -0.94800
O53         O  0.14523461  0.59150170  0.13158733    -0.93300
O54         O  0.21338122  0.53165670  0.98411794    -0.93600
O55         O  0.16956141  0.61466438  0.94941965    -0.92400
C56         C  0.13920347  0.63447531  0.12574866     1.16700
H57         H  0.15122331  0.46813319  0.02243098     0.32600
H58         H  0.05104021  0.61500723  0.95221477     0.43500
H59         H  0.04105510  0.58117502  0.13523971     0.37000
H60         H  0.93967466  0.47152362  0.01744387     0.33500
H61         H  0.15701063  0.55337248  0.87637626     0.25300
H62         H  0.87292981  0.54156998  0.92921902     0.31200
H63         H  0.86927786  0.56065225  0.06525739     0.37100
H64         H  0.23125250  0.53982002  0.95621589     0.31600
H65         H  0.21830164  0.54637208  0.08242289     0.30400
H66         H  0.09137685  0.51294707  0.18805311     0.32100
H67         H  0.99215349  0.53025696  0.18676719     0.31100
H68         H  0.14286604  0.63793643  0.94445960     0.35100
H69         H  0.06421984  0.71896868  0.05248746     0.27800
H70         H  0.00854761  0.35368890  0.00729123     0.32100
H71         H  0.89684542  0.46137110  0.13561925     0.34900
H72         H  0.21835244  0.50515058  0.11591198     0.27500
H73         H  0.10770901  0.69741867  0.02379550     0.40400
H74         H  0.95351536  0.55210622  0.87043511     0.30400
H75         H  0.09768771  0.55034333  0.87401018     0.38100
H76         H  0.00206977  0.47971903  0.17277100     0.29900
H77         H  0.87093873  0.52164486  0.97802163     0.30000
H78         H  0.97814004  0.37809952  0.04567217     0.30200
C79         C  0.70312911  0.37416987  0.79747619     0.79400
N80         N  0.67861158  0.34002212  0.81845025    -0.78900
C81         C  0.70159738  0.31582035  0.85127239     0.81900
N82         N  0.74987146  0.32632047  0.86350874    -0.78800
C83         C  0.77537624  0.36063228  0.84286150     0.82000
N84         N  0.75142281  0.38475653  0.80980664    -0.80500
Zr85       Zr  0.53101755  0.12854812  0.03288958     2.17500
O86         O  0.49286276  0.20028924  0.00885750    -0.52100
O87         O  0.58675523  0.16032143  0.09031532    -0.75300
O88         O  0.47148006  0.15368574  0.08940853    -0.82100
O89         O  0.60229604  0.13521953  0.92342945    -0.83900
O90         O  0.44743275  0.08935438  0.12547864    -0.79500
O91         O  0.57836204  0.17793190  0.98300859    -0.91100
O92         O  0.64285877  0.10459678  0.10938937    -0.77100
O93         O  0.54667626  0.07315626  0.08982829    -0.86600
O94         O  0.60768742  0.09068842  0.01423676    -0.86300
O95         O  0.45849733  0.07888728  0.03030940    -0.73000
O96         O  0.51455150  0.09545479  0.96066889    -0.85100
Zr97       Zr  0.53848561  0.95091293  0.99662767     2.26400
Zr98       Zr  0.47636776  0.02266095  0.08650422     2.06300
Zr99       Zr  0.59120989  0.05674381  0.94300476     2.10000
Zr100      Zr  0.62264779  0.03505301  0.07063043     1.78800
O101        O  0.56870076  0.05925961  0.86366087    -0.94000
O102        O  0.62963604  0.01781268  0.15050457    -0.41800
O103        O  0.61010465  0.00065298  0.99905251    -0.78400
O104        O  0.55299159  0.98334655  0.06932730    -0.97100
O105        O  0.46132467  0.98762348  0.01576323    -0.90400
O106        O  0.52137862  0.00563749  0.93932295    -0.93200
C107        C  0.62444447  0.14471293  0.11326942     1.00500
C108        C  0.59881427  0.17284472  0.94452839     1.13500
C109        C  0.44690082  0.13274171  0.12012076     1.04200
O110        O  0.49862029  0.00511058  0.16410402    -0.95400
O111        O  0.45935900  0.94385458  0.10198684    -0.91100
O112        O  0.49826501  0.90072630  0.04935842    -0.84300
C113        C  0.47180451  0.90575901  0.08460697     1.10900
O114        O  0.38584572  0.10567257  0.94621156    -0.97400
Zr115      Zr  0.44484842  0.04291522  0.95950478     1.88900
O116        O  0.48014610  0.91887303  0.94211104    -0.74000
O117        O  0.38540050  0.01705418  0.09891920    -0.53300
O118        O  0.36139723  0.02313045  0.98792154    -0.97900
O119        O  0.43733942  0.06595811  0.88119910    -0.55200
O120        O  0.42178465  0.97241504  0.92243709    -0.74500
C121        C  0.44044306  0.93210835  0.92054217     0.97800
O122        O  0.56754571  0.87408954  0.01473228    -0.63300
O123        O  0.67863165  0.07833822  0.92808916    -0.58100
O124        O  0.60966257  0.92873430  0.94975175    -0.94800
O125        O  0.63440884  0.99217126  0.91264519    -0.93300
O126        O  0.70877947  0.04615382  0.04429218    -0.93600
O127        O  0.67556559  0.96983830  0.09014113    -0.92400
C128        C  0.63777398  0.94961585  0.92142754     1.16700
H129        H  0.63595995  0.11157049  0.01286271     0.32600
H130        H  0.55957591  0.95972111  0.09109110     0.43500
H131        H  0.51947959  0.99207224  0.90979932     0.37000
H132        H  0.42799369  0.09543591  0.03744768     0.33500
H133        H  0.66329283  0.02964294  0.15985425     0.25300
H134        H  0.37350281  0.99333288  0.07779599     0.31200
H135        H  0.35395092  0.04647506  0.01075853     0.37100
H136        H  0.72821047  0.05570999  0.07121825     0.31600
H137        H  0.69947500  0.05811885  0.94750833     0.30400
H138        H  0.60095948  0.05379137  0.84790043     0.32100
H139        H  0.40624716  0.05070613  0.87004276     0.31100
H140        H  0.66278494  0.94502238  0.07071921     0.35100
H141        H  0.56152313  0.85609516  0.98724970     0.27800
H142        H  0.50430916  0.22287133  0.03136553     0.32100
H143        H  0.35559312  0.09189897  0.93174747     0.34900
H144        H  0.68527279  0.06800724  0.89717887     0.27500
H145        H  0.60488221  0.87606114  0.01810112     0.40400
H146        H  0.46649609  0.99507186  0.17787697     0.30400
H147        H  0.60507717  0.03842223  0.16496294     0.38100
H148        H  0.46531825  0.04994751  0.86600586     0.29900
H149        H  0.38227315  0.00281476  0.12887341     0.30000
H150        H  0.45602906  0.19674758  0.01364200     0.30200
C151        C  0.21293393  0.21048562  0.26388750     0.79400
N152        N  0.25936903  0.19590781  0.25121367    -0.78900
C153        C  0.28304340  0.21523042  0.21584818     0.81900
N154        N  0.25988131  0.24994902  0.19360915    -0.78800
C155        C  0.21352684  0.26474093  0.20610618     0.82000
N156        N  0.18958511  0.24443973  0.24072124    -0.80500
C157        C  0.35634019  0.82333059  0.77856076     0.79400
N158        N  0.31710209  0.84500185  0.75768574    -0.78900
C159        C  0.29783584  0.82958900  0.71843168     0.81900
N160        N  0.31896978  0.79262383  0.69930594    -0.78800
C161        C  0.35820561  0.77071865  0.71928745     0.82000
N162        N  0.37716170  0.78600641  0.75900503    -0.80500
Zr163      Zr  0.01723010  0.03960233  0.43833125     2.17500
O164        O  0.03763019  0.02802207  0.35963052    -0.52100
O165        O  0.94482271  0.08527392  0.41493713    -0.75300
O166        O  0.97051258  0.97609320  0.40517594    -0.82100
O167        O  0.12198018  0.12907660  0.44504155    -0.83900
O168        O  0.94348510  0.93192939  0.46288773    -0.79500
O169        O  0.07204588  0.08999495  0.39617943    -0.91100
O170        O  0.90892618  0.11486963  0.47708101    -0.77100
O171        O  0.95437645  0.02669189  0.49363650    -0.86600
O172        O  0.01881042  0.10410945  0.48675070    -0.86300
O173        O  0.04248065  0.96998671  0.47477913    -0.73000
O174        O  0.10136281  0.04320417  0.46935461    -0.85100
Zr175      Zr  0.06635202  0.02382898  0.61275356     2.26400
Zr176      Zr  0.98044025  0.95894180  0.53217793     2.06300
Zr177      Zr  0.10146371  0.10604932  0.52002031     2.10000
Zr178      Zr  0.95726259  0.09015622  0.54263310     1.78800
O179        O  0.18795322  0.13333796  0.51108039    -0.94000
O180        O  0.87389549  0.06055363  0.56167717    -0.41800
O181        O  0.04011646  0.09328236  0.57650344    -0.78400
O182        O  0.98126411  0.02239668  0.58244923    -0.97100
O183        O  0.06424677  0.96061740  0.56311427    -0.90400
O184        O  0.12847548  0.03777023  0.55705392    -0.93200
C185        C  0.91109421  0.10931075  0.43453745     1.00500
C186        C  0.10688327  0.11906793  0.40538650     1.13500
C187        C  0.94640705  0.94180998  0.42113969     1.04200
O188        O  0.88941804  0.95049351  0.54278799    -0.95400
O189        O  0.96772012  0.92888367  0.60701749    -0.91100
O190        O  0.01752833  0.96846156  0.65565501    -0.84300
C191        C  0.98436845  0.93771528  0.64663870     1.10900
O192        O  0.16272616  0.95434595  0.43557181    -0.97400
Zr193      Zr  0.12550331  0.97502010  0.50703575     1.88900
O194        O  0.13305493  0.97037793  0.63391735    -0.74000
O195        O  0.99513066  0.87706671  0.53012415    -0.53300
O196        O  0.12381124  0.89321418  0.49396133    -0.97900
O197        O  0.21304179  0.00074246  0.50044507    -0.55200
O198        O  0.16472643  0.93985708  0.57081523    -0.74500
C199        C  0.16225194  0.94263674  0.61326989     0.97800
O200        O  0.05442236  0.04699043  0.69035732    -0.63300
O201        O  0.06959055  0.18369089  0.52561550    -0.58100
O202        O  0.11628306  0.08594032  0.64589312    -0.94800
O203        O  0.14197535  0.13106189  0.58842082    -0.93300
O204        O  0.95373751  0.17294725  0.54642698    -0.93600
O205        O  0.93014250  0.12397056  0.61276280    -0.92400
C206        C  0.14059632  0.12033872  0.63001488     1.16700
H207        H  0.01183012  0.13183421  0.47044598     0.32600
H208        H  0.95697237  0.01794706  0.60612446     0.43500
H209        H  0.16176526  0.04122614  0.57042384     0.37000
H210        H  0.04253897  0.94481116  0.45400466     0.33500
H211        H  0.85321920  0.08769433  0.56871903     0.25300
H212        H  0.96099539  0.86336649  0.53280097     0.31200
H213        H  0.10106337  0.88097468  0.51725404     0.37100
H214        H  0.91938141  0.18125824  0.53544345     0.31600
H215        H  0.05958602  0.18684363  0.55733130     0.30400
H216        H  0.18504699  0.16693727  0.50959760     0.32100
H217        H  0.22847764  0.99639273  0.53054657     0.31100
H218        H  0.96027915  0.12184473  0.63275580     0.35100
H219        H  0.01728859  0.04718358  0.69493225     0.27800
H220        H  0.00490402  0.02530479  0.34326187     0.32100
H221        H  0.19332327  0.93621321  0.44323089     0.34900
H222        H  0.09996835  0.20322506  0.52281411     0.27500
H223        H  0.06736509  0.02144489  0.70900424     0.40400
H224        H  0.88258339  0.91771058  0.53804086     0.30400
H225        H  0.85959894  0.04928688  0.53300502     0.38100
H226        H  0.21059719  0.03418716  0.49664126     0.29900
H227        H  0.00529804  0.87057193  0.49896360     0.30000
H228        H  0.05334526  0.99747184  0.35829294     0.30200
C229        C  0.72176288  0.23130834  0.26383568     0.79400
N230        N  0.70657348  0.27150743  0.28196684    -0.78900
C231        C  0.72538780  0.28572043  0.32220461     0.81900
N232        N  0.75871077  0.25828420  0.34463586    -0.78800
C233        C  0.77381185  0.21808006  0.32706617     0.82000
N234        N  0.75514908  0.20459908  0.28681054    -0.80500
C235        C  0.20339508  0.34362752  0.76701939     0.79400
N236        N  0.19142237  0.30043307  0.75471789    -0.78900
C237        C  0.21317696  0.28095448  0.71839231     0.81900
N238        N  0.24751208  0.30559506  0.69450622    -0.78800
C239        C  0.26077698  0.34832744  0.70742023     0.82000
N240        N  0.23853236  0.36710022  0.74353343    -0.80500
C241        C  0.38713256  0.70614727  0.24302625     0.79400
N242        N  0.33754746  0.69747224  0.23345246    -0.78900
C243        C  0.31340618  0.72043341  0.19964020     0.81900
N244        N  0.33991136  0.75133522  0.17569215    -0.78800
C245        C  0.38916140  0.76010983  0.18535029     0.82000
N246        N  0.41272619  0.73744408  0.21900157    -0.80500
Zr247      Zr  0.50680808  0.52647156  0.60344069     2.17500
O248        O  0.51245371  0.53566579  0.68450925    -0.52100
O249        O  0.43295455  0.48059838  0.62266989    -0.75300
O250        O  0.46121049  0.59366637  0.62925280    -0.82100
O251        O  0.61172871  0.43772011  0.61036644    -0.83900
O252        O  0.43678481  0.63532266  0.56847422    -0.79500
O253        O  0.56417305  0.48496184  0.65305460    -0.91100
O254        O  0.40237903  0.44651406  0.56009469    -0.77100
O255        O  0.44777501  0.53538506  0.54315758    -0.86600
O256        O  0.51378569  0.45940629  0.55910615    -0.86300
O257        O  0.53446507  0.59443503  0.56574055    -0.73000
O258        O  0.59313074  0.52355344  0.57871350    -0.85100
Zr259      Zr  0.56692985  0.53267555  0.43267293     2.26400
Zr260      Zr  0.47623317  0.60175231  0.50396928     2.06300
Zr261      Zr  0.59914638  0.45746923  0.53267101     2.10000
Zr262      Zr  0.45582323  0.46883545  0.49831335     1.78800
O263        O  0.68967085  0.45133092  0.54853294    -0.94000
O264        O  0.37147420  0.48987009  0.47118734    -0.41800
O265        O  0.54092675  0.46476067  0.47126926    -0.78400
O266        O  0.48052782  0.53540568  0.45775271    -0.97100
O267        O  0.56123451  0.59934999  0.47746236    -0.90400
O268        O  0.62609579  0.52374523  0.49300946    -0.93200
C269        C  0.40119125  0.45460059  0.60221477     1.00500
C270        C  0.59712305  0.45331050  0.64807097     1.13500
C271        C  0.43885332  0.62787718  0.61077767     1.04200
O272        O  0.38696731  0.61092949  0.48429614    -0.95400
O273        O  0.46901459  0.62773264  0.42760555    -0.91100
O274        O  0.51904717  0.58383466  0.38367755    -0.84300
C275        C  0.48676414  0.61597372  0.38961946     1.10900
O276        O  0.64857807  0.62046175  0.60974258    -0.97400
Zr277      Zr  0.61897133  0.58981304  0.53832979     1.88900
O278        O  0.63799846  0.58120072  0.41210909    -0.74000
O279        O  0.49409349  0.68320251  0.50361198    -0.53300
O280        O  0.60928381  0.67225319  0.54130912    -0.97900
O281        O  0.70697455  0.57149180  0.55716610    -0.55200
O282        O  0.66482017  0.61774283  0.47477293    -0.74500
C283        C  0.66620023  0.61019252  0.43263919     0.97800
O284        O  0.54976494  0.51407790  0.35438042    -0.63300
O285        O  0.58674485  0.37529794  0.53494228    -0.58100
O286        O  0.61774898  0.46812785  0.40696240    -0.94800
O287        O  0.63766056  0.42401515  0.46728864    -0.93300
O288        O  0.45564598  0.38596105  0.50189849    -0.93600
O289        O  0.43864632  0.43323081  0.42611737    -0.92400
C290        C  0.63940086  0.43334668  0.42531041     1.16700
H291        H  0.50606886  0.43245557  0.57661459     0.32600
H292        H  0.45748574  0.53828730  0.43253751     0.43500
H293        H  0.66026342  0.51996800  0.48215933     0.37000
H294        H  0.53363126  0.62068013  0.58495051     0.33500
H295        H  0.35301390  0.46066719  0.46829615     0.25300
H296        H  0.46042666  0.69799636  0.50119534     0.31200
H297        H  0.60366465  0.68188021  0.50981002     0.37100
H298        H  0.48681868  0.37657955  0.48620306     0.31600
H299        H  0.61807035  0.36316956  0.54916855     0.30400
H300        H  0.69432635  0.42053199  0.56157379     0.32100
H301        H  0.72405091  0.56709370  0.52813960     0.31100
H302        H  0.46816395  0.44129040  0.40747846     0.35100
H303        H  0.58319801  0.51309802  0.33963820     0.27800
H304        H  0.47700898  0.53654276  0.69508878     0.32100
H305        H  0.67526882  0.64284524  0.60216983     0.34900
H306        H  0.55998840  0.37007322  0.55735925     0.27500
H307        H  0.53762971  0.48217706  0.35455059     0.40400
H308        H  0.38124675  0.64425565  0.48438732     0.30400
H309        H  0.35539430  0.50529735  0.49681541     0.38100
H310        H  0.70562710  0.54066828  0.57064988     0.29900
H311        H  0.50610702  0.69028557  0.53433236     0.30000
H312        H  0.52579959  0.56677073  0.68944872     0.30200
C313        C  0.43112584  0.70824378  0.31572408    -0.09900
C314        C  0.41363794  0.68259622  0.27940914     0.06300
C315        C  0.42523895  0.63602048  0.27690754    -0.03700
C316        C  0.45156309  0.61497732  0.31225341    -0.08200
C317        C  0.46630731  0.64007594  0.35015732     0.05400
C318        C  0.45689379  0.68735867  0.35119831    -0.03200
Br319      Br  0.47946931  0.72556643  0.39933877    -0.02900
H320        H  0.42413776  0.74460731  0.31671294     0.09300
H321        H  0.45911008  0.57875357  0.31072282     0.07300
Br322      Br  0.40755339  0.60070775  0.22514941    -0.03300
C323        C  0.37266790  0.42202106  0.67516339    -0.09900
C324        C  0.36244437  0.43044712  0.62944963     0.06300
C325        C  0.31722767  0.41252741  0.61044005    -0.03700
C326        C  0.28560188  0.38470545  0.63607139    -0.08200
C327        C  0.29678403  0.37553178  0.68111060     0.05400
C328        C  0.34029386  0.39495321  0.70091003    -0.03200
Br329      Br  0.35881045  0.38289145  0.76218325    -0.02900
H330        H  0.40685815  0.43526678  0.69074869     0.09300
H331        H  0.25123598  0.37111910  0.62105295     0.07300
Br332      Br  0.29411310  0.42664529  0.55080556    -0.03300
C333        C  0.72895843  0.34059099  0.38577717    -0.09900
C334        C  0.70730304  0.32854957  0.34409203     0.06300
C335        C  0.66758451  0.35639862  0.32672134    -0.03700
C336        C  0.64754816  0.39155501  0.35294136    -0.08200
C337        C  0.66652038  0.40059013  0.39614067     0.05400
C338        C  0.70922704  0.37590704  0.41155079    -0.03200
Br339      Br  0.74363362  0.38935215  0.46696068    -0.02900
H340        H  0.76101988  0.32179328  0.39931296     0.09300
H341        H  0.61562779  0.41096736  0.33997247     0.07300
Br342      Br  0.63780918  0.34941283  0.26810114    -0.03300
C343        C  0.13874537  0.17068780  0.69670210    -0.09900
C344        C  0.16612634  0.15252044  0.66098881     0.06300
C345        C  0.21305930  0.17231376  0.65004822    -0.03700
C346        C  0.22857022  0.21271806  0.67072428    -0.08200
C347        C  0.19854774  0.23411826  0.70324923     0.05400
C348        C  0.15451061  0.21081774  0.71817338    -0.03200
Br349      Br  0.11154859  0.23199880  0.76540868    -0.02900
H350        H  0.10293999  0.15540648  0.70593455     0.09300
H351        H  0.26382299  0.22807887  0.66016141     0.07300
Br352      Br  0.25712810  0.14574412  0.60650756    -0.03300
C353        C  0.79170745  0.17058104  0.39399659    -0.09900
C354        C  0.80793072  0.18811668  0.35287244     0.06300
C355        C  0.85670755  0.17747619  0.33762202    -0.03700
C356        C  0.88889077  0.15027882  0.36390482    -0.08200
C357        C  0.87356578  0.13377132  0.40592916     0.05400
C358        C  0.82385228  0.14342399  0.42046365    -0.03200
Br359      Br  0.79673763  0.11952087  0.47515129    -0.04900
H360        H  0.75382678  0.17811597  0.40559519     0.09300
H361        H  0.92690732  0.14369277  0.35223485     0.07300
Br362      Br  0.88304060  0.20295283  0.28346677    -0.03300
C363        C  0.19440897  0.91422344  0.68694386    -0.09900
C364        C  0.19511403  0.91153888  0.63990690     0.06300
C365        C  0.22663575  0.87834179  0.61974847    -0.03700
C366        C  0.25894267  0.85217059  0.64636509    -0.08200
C367        C  0.25963079  0.85617940  0.69311545     0.05400
C368        C  0.22539048  0.88633821  0.71357081    -0.03200
Br369      Br  0.21592860  0.88902694  0.77719387    -0.02900
H370        H  0.16924113  0.93783204  0.70340360     0.09300
H371        H  0.28410835  0.82849241  0.62993929     0.07300
Br372      Br  0.22801347  0.86386745  0.55680226    -0.03300
C373        C  0.37401466  0.68876913  0.70653148    -0.09900
C374        C  0.38285093  0.73420868  0.69452324     0.06300
C375        C  0.40859521  0.74427426  0.65467355    -0.03700
C376        C  0.42604052  0.70899159  0.62794042    -0.08200
C377        C  0.41766075  0.66332892  0.63983775     0.05400
C378        C  0.39098107  0.65323144  0.67936030    -0.03200
Br379      Br  0.37279158  0.59213762  0.69562097    -0.02900
H380        H  0.35215274  0.68099909  0.73611129     0.09300
H381        H  0.44645752  0.71736746  0.59769616     0.07300
Br382      Br  0.41987153  0.80569651  0.63469728    -0.03300
C383        C  0.18410072  0.15453729  0.37470427    -0.09900
C384        C  0.13307553  0.14199325  0.36825628     0.06300
C385        C  0.10862882  0.15279920  0.32727340    -0.03700
C386        C  0.13550288  0.17518219  0.29376400    -0.08200
C387        C  0.18639288  0.18737873  0.30032385     0.05400
C388        C  0.21070448  0.17728912  0.34133795    -0.03200
Br389      Br  0.27853315  0.19703748  0.35510866    -0.02900
H390        H  0.20345011  0.14696104  0.40607999     0.09300
H391        H  0.11649414  0.18314609  0.26231684     0.07300
Br392      Br  0.03820608  0.14086790  0.31552032    -0.03300
C393        C  0.46622489  0.86255546  0.15430227    -0.09900
C394        C  0.45592656  0.86506139  0.10828347     0.06300
C395        C  0.42849692  0.83028165  0.08683835    -0.03700
C396        C  0.40831484  0.79520946  0.11258006    -0.08200
C397        C  0.41636933  0.79395762  0.15913755     0.05400
C398        C  0.44719993  0.82703067  0.17989667    -0.03200
Br399      Br  0.46113886  0.82836628  0.24323186    -0.02900
H400        H  0.48818723  0.88907133  0.17058066     0.09300
H401        H  0.38531731  0.76937703  0.09637459     0.07300
Br402      Br  0.41431474  0.83093391  0.02355422    -0.03300
C403        C  0.70141176  0.17110811  0.15265536    -0.09900
C404        C  0.64861607  0.17350087  0.14774363     0.06300
C405        C  0.62035977  0.19707763  0.18009221    -0.03700
C406        C  0.64533153  0.21819830  0.21612141    -0.08200
C407        C  0.69811288  0.21427520  0.22191028     0.05400
C408        C  0.72607687  0.19025630  0.18956068    -0.03200
Br409      Br  0.79768841  0.18050607  0.19377535    -0.02900
H410        H  0.72352023  0.15229759  0.12853986     0.09300
H411        H  0.62297904  0.23501324  0.24141222     0.07300
Br412      Br  0.54769433  0.19553979  0.18072680    -0.03300
C413        C  0.34547641  0.87169147  0.84542295    -0.09900
C414        C  0.37755094  0.84368653  0.82013689     0.06300
C415        C  0.42933622  0.84081223  0.83257024    -0.03700
C416        C  0.44819784  0.86833134  0.86702476    -0.08200
C417        C  0.41676026  0.89923866  0.88941142     0.05400
C418        C  0.36444191  0.89954270  0.87938978    -0.03200
Br419      Br  0.31659446  0.93701675  0.91034943    -0.02900
H420        H  0.30532950  0.87324365  0.83774810     0.09300
H421        H  0.48846208  0.86730444  0.87462816     0.07300
Br422      Br  0.47798149  0.80387242  0.80207220    -0.03300
C423        C  0.38800457  0.13356385  0.18402824    -0.09900
C424        C  0.41279996  0.15847108  0.15037774     0.06300
C425        C  0.39946838  0.20479344  0.14429995    -0.03700
C426        C  0.35930599  0.22321102  0.16847746    -0.08200
C427        C  0.33115935  0.19653841  0.19852426     0.05400
C428        C  0.34735488  0.15150624  0.20740681    -0.03200
Br429      Br  0.31416477  0.10969452  0.24721648    -0.02900
H430        H  0.39819761  0.09845360  0.19078647     0.09300
H431        H  0.34870130  0.25834100  0.16219473     0.07300
Br432      Br  0.43164523  0.24519307  0.10284863    -0.03300
C433        C  0.68456234  0.27201875  0.92034479    -0.09900
C434        C  0.67338640  0.27999623  0.87490213     0.06300
C435        C  0.63535301  0.25373129  0.85341518    -0.03700
C436        C  0.60990054  0.22029750  0.87751110    -0.08200
C437        C  0.62144297  0.21233570  0.92271057     0.05400
C438        C  0.65927179  0.23821060  0.94419633    -0.03200
Br439      Br  0.68175316  0.22547664  0.00432530    -0.02900
H440        H  0.71365091  0.29169997  0.93731775     0.09300
H441        H  0.58173789  0.19949990  0.86055463     0.07300
Br442      Br  0.61823232  0.25859036  0.79085444    -0.03300
C443        C  0.65416704  0.36800241  0.72780104    -0.09900
C444        C  0.67754996  0.39630573  0.75951140     0.06300
C445        C  0.67155428  0.44380167  0.75626224    -0.03700
C446        C  0.64333625  0.46221807  0.72049144    -0.08200
C447        C  0.62116738  0.43361141  0.68811758     0.05400
C448        C  0.62577736  0.38612938  0.69261026    -0.03200
Br449      Br  0.59159530  0.34424805  0.65337282    -0.02900
H450        H  0.65779048  0.33137052  0.73054104     0.09300
H451        H  0.63951756  0.49883887  0.71745806     0.07300
Br452      Br  0.69902923  0.48424552  0.80065407    -0.03300
C453        C  0.19489481  0.70233516  0.12832316    -0.09900
C454        C  0.17379099  0.66492701  0.15061038     0.06300
C455        C  0.19112543  0.65419644  0.19412238    -0.03700
C456        C  0.23488137  0.67499022  0.21100811    -0.08200
C457        C  0.26076078  0.70809415  0.18589687     0.05400
C458        C  0.23716751  0.72490763  0.14606910    -0.03200
Br459      Br  0.25922665  0.77774065  0.11326891    -0.02900
H460        H  0.18006004  0.71271412  0.09584182     0.09300
H461        H  0.24949341  0.66396881  0.24332229     0.07300
Br462      Br  0.15545688  0.61257285  0.23220202    -0.03300
C463        C  0.17014944  0.34055596  0.84496032    -0.09900
C464        C  0.17839608  0.36544855  0.80537036     0.06300
C465        C  0.16476797  0.41182466  0.80377976    -0.03700
C466        C  0.14695160  0.43308533  0.84203930    -0.08200
C467        C  0.14151873  0.40923185  0.88257379     0.05400
C468        C  0.15167836  0.36199405  0.88346988    -0.03200
Br469      Br  0.14454653  0.32569987  0.93657687    -0.02900
H470        H  0.17988948  0.30472818  0.84647360     0.09300
H471        H  0.13713215  0.46886896  0.83990646     0.07300
Br472      Br  0.16778221  0.44817790  0.75016626    -0.03300
C473        C  0.14050060  0.29329370  0.16183817    -0.09900
C474        C  0.18859537  0.30104767  0.18066881     0.06300
C475        C  0.21288419  0.34293129  0.17389032    -0.03700
C476        C  0.18969429  0.37583490  0.14697537    -0.08200
C477        C  0.14202194  0.36799005  0.12675889     0.05400
C478        C  0.11695715  0.32641435  0.13502196    -0.03200
Br479      Br  0.04964645  0.31380036  0.11391118    -0.02900
H480        H  0.12136089  0.26122007  0.16779962     0.09300
H481        H  0.20898152  0.40803209  0.14212953     0.07300
Br482      Br  0.27606286  0.35787077  0.20301088    -0.03300
C483        C  0.89997644  0.42423073  0.86119460    -0.09900
C484        C  0.91300864  0.40965985  0.90474338     0.06300
C485        C  0.88501814  0.37406554  0.92421340    -0.03700
C486        C  0.84280830  0.35636693  0.90169633    -0.08200
C487        C  0.82657675  0.37395751  0.85996800     0.05400
C488        C  0.85769376  0.40651202  0.83851439    -0.03200
Br489      Br  0.84560107  0.42881974  0.77874558    -0.02900
H490        H  0.92167392  0.45108436  0.84538885     0.09300
H491        H  0.82063557  0.33071305  0.91874735     0.07300
Br492      Br  0.89706198  0.35246387  0.98401234    -0.03300
C493        C  0.87832352  0.66093593  0.17158280    -0.09900
C494        C  0.93049346  0.66541519  0.16468488     0.06300
C495        C  0.95915043  0.69482003  0.19232085    -0.03700
C496        C  0.93545391  0.71775440  0.22727981    -0.08200
C497        C  0.88366494  0.71138745  0.23564676     0.05400
C498        C  0.85478125  0.68332961  0.20674655    -0.03200
Br499      Br  0.78313097  0.67388656  0.21295373    -0.02900
H500        H  0.85593834  0.63882451  0.15014748     0.09300
H501        H  0.95823040  0.73868710  0.24950698     0.07300
Br502      Br  0.03140377  0.70120247  0.18735915    -0.03300
C503        C  0.92448141  0.84990068  0.33503117    -0.09900
C504        C  0.87692389  0.83330062  0.34857677     0.06300
C505        C  0.84944477  0.85833912  0.38064298    -0.03700
C506        C  0.87176530  0.89583793  0.40142186    -0.08200
C507        C  0.92072650  0.91003789  0.39043872     0.05400
C508        C  0.94634246  0.88809658  0.35544859    -0.03200
Br509      Br  0.01285950  0.90599182  0.33697492    -0.02900
H510        H  0.94602033  0.83190728  0.30998102     0.09300
H511        H  0.85132637  0.91323035  0.42761703     0.07300
Br512      Br  0.78131052  0.84428223  0.39806116    -0.03300
C513        C  0.72990911  0.67942748  0.34115076    -0.09900
C514        C  0.77319947  0.69488304  0.36412788     0.06300
C515        C  0.78119503  0.68221680  0.40906288    -0.03700
C516        C  0.74672401  0.65328224  0.42985205    -0.08200
C517        C  0.70313168  0.63751672  0.40708505     0.05400
C518        C  0.69444511  0.65155938  0.36231507    -0.03200
Br519      Br  0.63340846  0.63767907  0.32938453    -0.02900
H520        H  0.72311186  0.68997999  0.30676809     0.09300
H521        H  0.75396963  0.64334447  0.46433496     0.07300
Br522      Br  0.83903851  0.70221855  0.44327894    -0.03300
C523        C  0.89206313  0.77210529  0.93273266    -0.09900
C524        C  0.89744931  0.77056946  0.88587372     0.06300
C525        C  0.92388298  0.73414446  0.86639233    -0.03700
C526        C  0.94474783  0.70053859  0.89368156    -0.08200
C527        C  0.93971659  0.70208873  0.94028868     0.05400
C528        C  0.91356618  0.73834475  0.96014005    -0.03200
Br529      Br  0.90460920  0.74219847  0.02374611    -0.02900
H530        H  0.87158093  0.79985496  0.94809131     0.09300
H531        H  0.96468047  0.67247521  0.87825621     0.07300
Br532      Br  0.92955764  0.72566118  0.80283205    -0.03300
C533        C  0.72045601  0.95107048  0.88336438    -0.09900
C534        C  0.67942744  0.92502227  0.89904919     0.06300
C535        C  0.68092285  0.87724640  0.89397344    -0.03700
C536        C  0.72386318  0.85675730  0.87567443    -0.08200
C537        C  0.76465032  0.88314465  0.86056576     0.05400
C538        C  0.76237040  0.93076370  0.86394107    -0.03200
Br539      Br  0.81698607  0.96998531  0.84639416    -0.02900
H540        H  0.72084509  0.98771927  0.88711758     0.09300
H541        H  0.72521762  0.82000924  0.87274141     0.07300
Br542      Br  0.62506070  0.83820958  0.90817139    -0.03300
C543        C  0.95953118  0.88364996  0.76087187    -0.09900
C544        C  0.90762591  0.87366170  0.75676980     0.06300
C545        C  0.88306131  0.88062379  0.71525916    -0.03700
C546        C  0.90928286  0.90047440  0.67983623    -0.08200
C547        C  0.96056009  0.91285985  0.68434521     0.05400
C548        C  0.98625145  0.90270039  0.72501902    -0.03200
Br549      Br  0.05799073  0.91093897  0.73284177    -0.02900
H550        H  0.97928674  0.87702877  0.79225967     0.09300
H551        H  0.88901237  0.90682897  0.64866420     0.07300
Br552      Br  0.81476571  0.86096396  0.70405309    -0.03300
loop_ 
_geom_bond_atom_site_label_1 
_geom_bond_atom_site_label_2 
_geom_bond_distance 
_geom_bond_site_symmetry_2 
_ccdc_geom_bond_type 
C1            N2   1.358       .  A
C1            N6   1.354       .  A
C1          C544   1.475       .  S
N2            C3   1.359       .  A
C3            N4   1.353       .  A
C3          C537   1.466       .  S
N4            C5   1.353       .  A
C5            N6   1.357       .  A
C5          C524   1.466       .  S
C7            N8   1.353       .  A
C7           N12   1.359       .  A
C7          C497   1.473       .  S
N8            C9   1.350       .  A
C9           N10   1.355       .  A
C9          C514   1.464       .  S
N10          C11   1.359       .  A
C11          N12   1.361       .  A
C11         C504   1.485       .  S
Zr13         O14   2.428       .  S
Zr13         O15   2.431   1_554  S
Zr13         O16   2.460   1_454  S
Zr13         O19   2.451       .  S
Zr13         O21   2.378   1_554  S
Zr13         O22   2.392       .  S
Zr13         O23   2.404   1_455  S
Zr13         O24   2.402       .  S
O14          H70   0.988       .  S
O14          H78   0.991   1_455  S
O15          C35   1.283       .  A
O16          C37   1.288       .  A
O17         Zr27   2.392       .  S
O17          C36   1.278       .  A
O18         Zr26   2.399       .  S
O18          C37   1.278       .  A
O19          C36   1.288       .  A
O20         Zr28   2.415       .  S
O20          C35   1.282       .  A
O21         Zr26   2.377   1_455  S
O21         Zr28   2.377       .  S
O22         Zr27   2.389       .  S
O22         Zr28   2.373   1_554  S
O22          H57   0.968       .  S
O23         Zr26   2.390   1_554  S
O23         Zr43   2.391       .  S
O23          H60   0.966       .  S
O24         Zr27   2.390       .  S
O24         Zr43   2.386   1_455  S
Zr25         O50   2.438       .  S
Zr25         O44   2.417   1_455  S
Zr25         O52   2.429       .  S
Zr25         O40   2.427   1_454  S
Zr25         O31   2.402       .  S
Zr25         O32   2.400   1_554  S
Zr25         O33   2.381   1_455  S
Zr25         O34   2.383       .  S
Zr26         O45   2.440       .  S
Zr26         O38   2.436       .  S
Zr26         O39   2.395       .  S
Zr26         O32   2.388   1_655  S
Zr26         O33   2.384   1_556  S
Zr27         O29   2.436       .  S
Zr27         O51   2.434       .  S
Zr27         O53   2.423       .  S
Zr27         O31   2.385       .  S
Zr27         O34   2.380       .  S
Zr28         O54   2.437       .  S
Zr28         O55   2.436       .  S
Zr28         O30   2.441       .  S
Zr28         O31   2.393   1_556  S
Zr28         O32   2.394       .  S
O29          H66   0.990       .  S
O30          H61   0.990       .  S
O30          H75   0.991       .  S
O32          H58   0.965       .  S
O33         Zr43   2.375       .  S
O34         Zr43   2.377   1_455  S
O34          H59   0.969       .  S
C35         C467   1.482       .  S
C36         C477   1.474       .  S
C37         C484   1.478       .  S
O38          H74   0.990       .  S
O39          C41   1.279       .  A
O40          C41   1.283       .  A
C41         C527   1.459       .  S
O42         Zr43   2.440       .  S
O42          H71   0.990       .  S
Zr43         O46   2.436       .  S
Zr43         O47   2.438       .  S
Zr43         O48   2.420       .  S
O44          C49   1.280       .  A
O45          H62   0.990       .  S
O45          H77   0.991       .  S
O46          H63   0.990       .  S
O47          H67   0.990       .  S
O47          H76   0.990   1_655  S
O48          C49   1.283       .  A
C49         C494   1.467       .  S
O50          H69   0.991       .  S
O50          H73   0.990       .  S
O51          H65   0.990       .  S
O51          H72   0.990       .  S
O52          C56   1.283       .  A
O53          C56   1.283       .  A
O54          H64   0.990       .  S
O55          H68   0.990       .  S
C56         C454   1.475       .  S
C79          N80   1.349       .  A
C79          N84   1.358       .  A
C79         C444   1.462       .  S
N80          C81   1.346       .  A
C81          N82   1.357       .  A
C81         C434   1.471       .  S
N82          C83   1.361       .  A
C83          N84   1.362       .  A
C83         C487   1.491       .  S
Zr85         O86   2.436       .  S
Zr85         O87   2.435       .  S
Zr85         O88   2.434       .  S
Zr85         O91   2.430   1_554  S
Zr85         O93   2.380       .  S
Zr85         O94   2.379       .  S
Zr85         O95   2.407       .  S
Zr85         O96   2.404   1_554  S
O86         H142   0.991       .  S
O86         H150   0.989       .  S
O87         C107   1.284       .  A
O88         C109   1.284       .  A
O89         Zr99   2.394       .  S
O89         C108   1.278       .  A
O90         Zr98   2.410       .  S
O90         C109   1.283       .  A
O91         C108   1.284       .  A
O92        Zr100   2.409       .  S
O92         C107   1.280       .  A
O93         Zr98   2.376       .  S
O93        Zr100   2.371       .  S
O94         Zr99   2.388   1_554  S
O94        Zr100   2.370       .  S
O94         H129   0.967       .  S
O95         Zr98   2.391       .  S
O95        Zr115   2.391   1_554  S
O95         H132   0.966       .  S
O96         Zr99   2.384       .  S
O96        Zr115   2.401       .  S
Zr97        O122   2.439   1_556  S
Zr97        O116   2.421       .  S
Zr97        O124   2.443       .  S
Zr97        O112   2.407   1_556  S
Zr97        O103   2.389   1_565  S
Zr97        O104   2.401   1_556  S
Zr97        O105   2.379   1_556  S
Zr97        O106   2.381   1_565  S
Zr98        O117   2.437       .  S
Zr98        O110   2.436       .  S
Zr98        O111   2.401   1_545  S
Zr98        O104   2.388   1_545  S
Zr98        O105   2.382   1_545  S
Zr99        O101   2.436       .  S
Zr99        O123   2.437       .  S
Zr99        O125   2.398   1_545  S
Zr99        O103   2.391       .  S
Zr99        O106   2.378       .  S
Zr100       O126   2.433       .  S
Zr100       O127   2.434   1_545  S
Zr100       O102   2.440       .  S
Zr100       O103   2.387   1_554  S
Zr100       O104   2.384   1_545  S
O101        H138   0.990       .  S
O102        H133   0.991       .  S
O102        H147   0.990       .  S
O104        H130   0.963       .  S
O105       Zr115   2.367   1_564  S
O106       Zr115   2.380       .  S
O106        H131   0.969   1_545  S
C107        C404   1.474       .  S
C108        C437   1.459       .  S
C109        C424   1.489       .  S
O110        H146   0.990   1_545  S
O111        C113   1.279       .  A
O112        C113   1.278       .  A
C113        C394   1.450       .  S
O114       Zr115   2.440       .  S
O114        H143   0.990       .  S
Zr115       O118   2.437       .  S
Zr115       O119   2.436       .  S
Zr115       O120   2.426   1_545  S
O116        C121   1.282       .  A
O117        H134   0.990   1_545  S
O117        H149   0.990       .  S
O118        H135   0.990   1_556  S
O119        H139   0.990       .  S
O119        H148   0.990       .  S
O120        C121   1.283       .  A
C121        C417   1.477       .  S
O122        H141   0.989   1_554  S
O122        H145   0.990       .  S
O123        H137   0.990       .  S
O123        H144   0.990       .  S
O124        C128   1.285       .  A
O125        C128   1.279       .  A
O126        H136   0.990       .  S
O127        H140   0.990       .  S
C128        C534   1.481       .  S
C151        N152   1.355       .  A
C151        N156   1.355       .  A
C151        C387   1.464       .  S
N152        C153   1.355       .  A
C153        N154   1.356       .  A
C153        C427   1.482       .  S
N154        C155   1.354       .  A
C155        N156   1.353       .  A
C155        C474   1.458       .  S
C157        N158   1.358       .  A
C157        N162   1.362       .  A
C157        C414   1.484       .  S
N158        C159   1.352       .  A
C159        N160   1.352       .  A
C159        C367   1.474       .  S
N160        C161   1.350       .  A
C161        N162   1.360       .  A
C161        C374   1.461       .  S
Zr163       O164   2.441       .  S
Zr163       O165   2.427   1_455  S
Zr163       O166   2.443   1_445  S
Zr163       O169   2.427       .  S
Zr163       O171   2.382   1_455  S
Zr163       O172   2.388       .  S
Zr163       O173   2.402   1_545  S
Zr163       O174   2.397       .  S
O164        H220   0.990       .  S
O164        H228   0.989   1_545  S
O165        C185   1.283       .  A
O166        C187   1.284       .  A
O167       Zr177   2.403       .  S
O167        C186   1.280       .  A
O168       Zr176   2.414       .  S
O168        C187   1.281       .  A
O169        C186   1.283       .  A
O170       Zr178   2.431       .  S
O170        C185   1.283       .  A
O171       Zr176   2.391   1_545  S
O171       Zr178   2.375       .  S
O172       Zr177   2.386       .  S
O172       Zr178   2.375   1_455  S
O172        H207   0.963       .  S
O173       Zr176   2.403   1_455  S
O173       Zr193   2.387       .  S
O173        H210   0.967       .  S
O174       Zr177   2.391       .  S
O174       Zr193   2.375   1_545  S
Zr175       O200   2.441       .  S
Zr175       O194   2.433   1_545  S
Zr175       O202   2.455       .  S
Zr175       O190   2.442   1_545  S
Zr175       O181   2.402       .  S
Zr175       O182   2.411   1_455  S
Zr175       O183   2.380   1_545  S
Zr175       O184   2.381       .  S
Zr176       O195   2.436       .  S
Zr176       O188   2.437       .  S
Zr176       O189   2.425       .  S
Zr176       O182   2.398   1_565  S
Zr176       O183   2.386   1_655  S
Zr177       O179   2.435       .  S
Zr177       O201   2.437       .  S
Zr177       O203   2.411       .  S
Zr177       O181   2.378       .  S
Zr177       O184   2.390       .  S
Zr178       O204   2.436       .  S
Zr178       O205   2.435       .  S
Zr178       O180   2.437       .  S
Zr178       O181   2.399   1_655  S
Zr178       O182   2.394       .  S
O179        H216   0.990       .  S
O180        H211   0.990       .  S
O180        H225   0.990       .  S
O182        H208   0.968       .  S
O183       Zr193   2.376       .  S
O184       Zr193   2.378   1_545  S
O184        H209   0.966       .  S
C185        C357   1.483       .  S
C186        C384   1.473       .  S
C187        C507   1.471       .  S
O188        H224   0.990       .  S
O189        C191   1.284       .  A
O190        C191   1.285   1_455  A
C191        C547   1.484       .  S
O192       Zr193   2.437       .  S
O192        H221   0.991       .  S
Zr193       O196   2.436       .  S
Zr193       O197   2.439   1_565  S
Zr193       O198   2.387       .  S
O194        C199   1.285       .  A
O195        H212   0.990       .  S
O195        H227   0.990   1_655  S
O196        H213   0.990       .  S
O197        H217   0.990   1_545  S
O197        H226   0.990       .  S
O198        C199   1.273       .  A
C199        C364   1.481       .  S
O200        H219   0.990       .  S
O200        H223   0.990       .  S
O201        H215   0.990       .  S
O201        H222   0.990       .  S
O202        C206   1.288       .  A
O203        C206   1.280       .  A
O204        H214   0.990       .  S
O205        H218   0.990       .  S
C206        C344   1.482       .  S
C229        N230   1.363       .  A
C229        N234   1.357       .  A
C229        C407   1.481       .  S
N230        C231   1.362       .  A
C231        N232   1.361       .  A
C231        C334   1.500       .  S
N232        C233   1.355       .  A
C233        N234   1.354       .  A
C233        C354   1.468       .  S
C235        N236   1.359       .  A
C235        N240   1.355       .  A
C235        C464   1.476       .  S
N236        C237   1.360       .  A
C237        N238   1.365       .  A
C237        C347   1.499       .  S
N238        C239   1.359       .  A
C239        N240   1.352       .  A
C239        C327   1.473       .  S
C241        N242   1.360       .  A
C241        N246   1.349       .  A
C241        C314   1.457       .  S
N242        C243   1.363       .  A
C243        N244   1.352       .  A
C243        C457   1.489       .  S
N244        C245   1.352       .  A
C245        N246   1.348       .  A
C245        C397   1.457       .  S
Zr247       O248   2.439       .  S
Zr247       O249   2.441       .  S
Zr247       O250   2.442       .  S
Zr247       O253   2.429       .  S
Zr247       O255   2.380       .  S
Zr247       O256   2.386       .  S
Zr247       O257   2.405       .  S
Zr247       O258   2.402       .  S
O248        H304   0.990       .  S
O248        H312   0.990       .  S
O249        C269   1.285       .  A
O250        C271   1.284       .  A
O251       Zr261   2.407       .  S
O251        C270   1.280       .  A
O252       Zr260   2.413       .  S
O252        C271   1.281       .  A
O253        C270   1.282       .  A
O254       Zr262   2.422       .  S
O254        C269   1.281       .  A
O255       Zr260   2.394       .  S
O255       Zr262   2.384       .  S
O256       Zr261   2.394       .  S
O256       Zr262   2.375       .  S
O256        H291   0.969       .  S
O257       Zr260   2.395       .  S
O257       Zr277   2.386       .  S
O257        H294   0.963       .  S
O258       Zr261   2.389       .  S
O258       Zr277   2.388       .  S
Zr259       O284   2.440       .  S
Zr259       O278   2.437       .  S
Zr259       O286   2.452       .  S
Zr259       O274   2.435       .  S
Zr259       O265   2.403       .  S
Zr259       O266   2.408       .  S
Zr259       O267   2.381       .  S
Zr259       O268   2.383       .  S
Zr260       O279   2.438       .  S
Zr260       O272   2.434       .  S
Zr260       O273   2.406       .  S
Zr260       O266   2.396       .  S
Zr260       O267   2.386       .  S
Zr261       O263   2.435       .  S
Zr261       O285   2.436       .  S
Zr261       O287   2.422       .  S
Zr261       O265   2.387       .  S
Zr261       O268   2.386       .  S
Zr262       O288   2.436       .  S
Zr262       O289   2.437       .  S
Zr262       O264   2.437       .  S
Zr262       O265   2.397       .  S
Zr262       O266   2.390       .  S
O263        H300   0.990       .  S
O264        H295   0.990       .  S
O264        H309   0.990       .  S
O266        H292   0.965       .  S
O267       Zr277   2.373       .  S
O268       Zr277   2.379       .  S
O268        H293   0.967       .  S
C269        C324   1.491       .  S
C270        C447   1.464       .  S
C271        C377   1.472       .  S
O272        H308   0.990       .  S
O273        C275   1.280       .  A
O274        C275   1.285       .  A
C275        C317   1.469       .  S
O276       Zr277   2.438       .  S
O276        H305   0.991       .  S
Zr277       O280   2.436       .  S
Zr277       O281   2.441       .  S
Zr277       O282   2.402       .  S
O278        C283   1.284       .  A
O279        H296   0.990       .  S
O279        H311   0.990       .  S
O280        H297   0.990       .  S
O281        H301   0.990       .  S
O281        H310   0.990       .  S
O282        C283   1.279       .  A
C283        C517   1.479       .  S
O284        H303   0.990       .  S
O284        H307   0.990       .  S
O285        H299   0.990       .  S
O285        H306   0.989       .  S
O286        C290   1.287       .  A
O287        C290   1.283       .  A
O288        H298   0.990       .  S
O289        H302   0.990       .  S
C290        C337   1.488       .  S
C313        C314   1.397       .  A
C313        C318   1.392       .  A
C313        H320   1.084       .  S
C314        C315   1.404       .  A
C315        C316   1.398       .  A
C315       Br322   1.918       .  S
C316        C317   1.404       .  A
C316        H321   1.083       .  S
C317        C318   1.411       .  A
C318       Br319   1.917       .  S
C323        C324   1.409       .  A
C323        C328   1.400       .  A
C323        H330   1.083       .  S
C324        C325   1.417       .  A
C325        C326   1.399       .  A
C325       Br332   1.919       .  S
C326        C327   1.398       .  A
C326        H331   1.084       .  S
C327        C328   1.407       .  A
C328       Br329   1.919       .  S
C333        C334   1.410       .  A
C333        C338   1.398       .  A
C333        H340   1.083       .  S
C334        C335   1.421       .  A
C335        C336   1.405       .  A
C335       Br342   1.922       .  S
C336        C337   1.404       .  A
C336        H341   1.083       .  S
C337        C338   1.411       .  A
C338       Br339   1.920       .  S
C343        C344   1.401       .  A
C343        C348   1.405       .  A
C343        H350   1.084       .  S
C344        C345   1.409       .  A
C345        C346   1.399       .  A
C345       Br352   1.921       .  S
C346        C347   1.409       .  A
C346        H351   1.083       .  S
C347        C348   1.423       .  A
C348       Br349   1.924       .  S
C353        C354   1.400       .  A
C353        C358   1.399       .  A
C353        H360   1.084       .  S
C354        C355   1.405       .  A
C355        C356   1.397       .  A
C355       Br362   1.916       .  S
C356        C357   1.406       .  A
C356        H361   1.083       .  S
C357        C358   1.414       .  A
C358       Br359   1.920       .  S
C363        C364   1.407       .  A
C363        C368   1.396       .  A
C363        H370   1.083       .  S
C364        C365   1.421       .  A
C365        C366   1.388       .  A
C365       Br372   1.929       .  S
C366        C367   1.401       .  A
C366        H371   1.083       .  S
C367        C368   1.410       .  A
C368       Br369   1.920       .  S
C373        C374   1.401       .  A
C373        C378   1.401       .  A
C373        H380   1.083       .  S
C374        C375   1.406       .  A
C375        C376   1.392       .  A
C375       Br382   1.922       .  S
C376        C377   1.404       .  A
C376        H381   1.084       .  S
C377        C378   1.411       .  A
C378       Br379   1.919       .  S
C383        C384   1.407       .  A
C383        C388   1.393       .  A
C383        H390   1.084       .  S
C384        C385   1.411       .  A
C385        C386   1.395       .  A
C385       Br392   1.919       .  S
C386        C387   1.401       .  A
C386        H391   1.084       .  S
C387        C388   1.406       .  A
C388       Br389   1.921       .  S
C393        C394   1.399       .  A
C393        C398   1.388       .  A
C393        H400   1.084       .  S
C394        C395   1.404       .  A
C395        C396   1.392       .  A
C395       Br402   1.922       .  S
C396        C397   1.404       .  A
C396        H401   1.084       .  S
C397        C398   1.408       .  A
C398       Br399   1.922       .  S
C403        C404   1.400       .  A
C403        C408   1.394       .  A
C403        H410   1.084       .  S
C404        C405   1.410       .  A
C405        C406   1.402       .  A
C405       Br412   1.917       .  S
C406        C407   1.405       .  A
C406        H411   1.083       .  S
C407        C408   1.412       .  A
C408       Br409   1.913       .  S
C413        C414   1.407       .  A
C413        C418   1.394       .  A
C413        H420   1.082       .  S
C414        C415   1.414       .  A
C415        C416   1.398       .  A
C415       Br422   1.919       .  S
C416        C417   1.405       .  A
C416        H421   1.084       .  S
C417        C418   1.409       .  A
C418       Br419   1.921       .  S
C423        C424   1.407       .  A
C423        C428   1.390       .  A
C423        H430   1.083       .  S
C424        C425   1.415       .  A
C425        C426   1.398       .  A
C425       Br432   1.916       .  S
C426        C427   1.406       .  A
C426        H431   1.084       .  S
C427        C428   1.413       .  A
C428       Br429   1.923       .  S
C433        C434   1.403       .  A
C433        C438   1.394       .  A
C433        H440   1.083       .  S
C434        C435   1.415       .  A
C435        C436   1.392       .  A
C435       Br442   1.921       .  S
C436        C437   1.398       .  A
C436        H441   1.084       .  S
C437        C438   1.405       .  A
C438       Br439   1.919   1_556  S
C443        C444   1.401       .  A
C443        C448   1.387       .  A
C443        H450   1.083       .  S
C444        C445   1.406       .  A
C445        C446   1.401       .  A
C445       Br452   1.920       .  S
C446        C447   1.406       .  A
C446        H451   1.083       .  S
C447        C448   1.405       .  A
C448       Br449   1.920       .  S
C453        C454   1.401       .  A
C453        C458   1.398       .  A
C453        H460   1.084       .  S
C454        C455   1.406       .  A
C455        C456   1.396       .  A
C455       Br462   1.919       .  S
C456        C457   1.407       .  A
C456        H461   1.083       .  S
C457        C458   1.422       .  A
C458       Br459   1.925       .  S
C463        C464   1.406       .  A
C463        C468   1.405       .  A
C463        H470   1.084       .  S
C464        C465   1.409       .  A
C465        C466   1.390       .  A
C465       Br472   1.922       .  S
C466        C467   1.404       .  A
C466        H471   1.084       .  S
C467        C468   1.413       .  A
C468       Br469   1.917       .  S
C473        C474   1.401       .  A
C473        C478   1.398       .  A
C473        H480   1.084       .  S
C474        C475   1.402       .  A
C475        C476   1.391       .  A
C475       Br482   1.923       .  S
C476        C477   1.408       .  A
C476        H481   1.084       .  S
C477        C478   1.411       .  A
C478       Br479   1.914       .  S
C483        C484   1.406       .  A
C483        C488   1.400       .  A
C483        H490   1.084       .  S
C484        C485   1.407       .  A
C485        C486   1.396       .  A
C485       Br492   1.915       .  S
C486        C487   1.408       .  A
C486        H491   1.083       .  S
C487        C488   1.416       .  A
C488       Br489   1.921       .  S
C493        C494   1.400       .  A
C493        C498   1.393       .  A
C493        H500   1.084       .  S
C494        C495   1.411       .  A
C495        C496   1.398       .  A
C495       Br502   1.922   1_655  S
C496        C497   1.404       .  A
C496        H501   1.084       .  S
C497        C498   1.413       .  A
C498       Br499   1.921       .  S
C503        C504   1.409       .  A
C503        C508   1.400       .  A
C503        H510   1.083       .  S
C504        C505   1.415       .  A
C505        C506   1.394       .  A
C505       Br512   1.921       .  S
C506        C507   1.399       .  A
C506        H511   1.084       .  S
C507        C508   1.408       .  A
C508       Br509   1.918   1_655  S
C513        C514   1.402       .  A
C513        C518   1.397       .  A
C513        H520   1.084       .  S
C514        C515   1.404       .  A
C515        C516   1.394       .  A
C515       Br522   1.920       .  S
C516        C517   1.409       .  A
C516        H521   1.083       .  S
C517        C518   1.413       .  A
C518       Br519   1.922       .  S
C523        C524   1.408       .  A
C523        C528   1.398       .  A
C523        H530   1.084       .  S
C524        C525   1.408       .  A
C525        C526   1.387       .  A
C525       Br532   1.922       .  S
C526        C527   1.400       .  A
C526        H531   1.084       .  S
C527        C528   1.405       .  A
C528       Br529   1.920   1_556  S
C533        C534   1.409       .  A
C533        C538   1.389       .  A
C533        H540   1.083       .  S
C534        C535   1.412       .  A
C535        C536   1.399       .  A
C535       Br542   1.917       .  S
C536        C537   1.403       .  A
C536        H541   1.084       .  S
C537        C538   1.404       .  A
C538       Br539   1.921       .  S
C543        C544   1.404       .  A
C543        C548   1.402       .  A
C543        H550   1.084       .  S
C544        C545   1.406       .  A
C545        C546   1.395       .  A
C545       Br552   1.918       .  S
C546        C547   1.406       .  A
C546        H551   1.083       .  S
C547        C548   1.414       .  A
C548       Br549   1.919   1_655  S
