geometry optimzed in LAMMPS
_audit_creation_date              2020-11-30 
_audit_creation_method            'lammps2cif' 
_symmetry_space_group_name_H-M    'P1' 
_symmetry_Int_Tables_number       1 
_symmetry_cell_setting            triclinic 
loop_ 
_symmetry_equiv_pos_as_xyz 
  x,y,z 
_cell_length_a                    35.87897613 
_cell_length_b                    35.537193284865296 
_cell_length_c                    25.426782671078744 
_cell_angle_alpha                 92.32267044979385 
_cell_angle_beta                  90.60006366347864 
_cell_angle_gamma                 95.03815535559741 
loop_ 
_atom_site_label 
_atom_site_type_symbol 
_atom_site_fract_x 
_atom_site_fract_y 
_atom_site_fract_z 
_atom_site_charge 
O1          O  0.23975138  0.17599192  0.34963636    -0.87000
O2          O  0.24309659  0.18221573  0.65110294    -0.87200
O3          O  0.27174600  0.13092866  0.48585289    -0.88900
O4          O  0.15978919  0.14869191  0.50681280    -0.87600
O5          O  0.12693671  0.20110322  0.50962083    -0.87200
O6          O  0.32643846  0.16868213  0.48559201    -0.88600
O7          O  0.23072318  0.13825947  0.58243108    -0.87100
O8          O  0.22795557  0.13595284  0.41725711    -0.86600
Zr9        Zr  0.22499632  0.17216440  0.50083001     2.84300
O10         O  0.19971264  0.21603642  0.55777578    -1.08600
O11         O  0.26845151  0.20310714  0.44582898    -1.09400
C12         C  0.23508712  0.14204163  0.36841322     1.06100
C13         C  0.23859842  0.14714389  0.63138014     1.06000
C14         C  0.30691759  0.13641793  0.48014473     1.09000
C15         C  0.12955909  0.16534496  0.51222568     1.06800
H16         H  0.28528976  0.18729434  0.57483728     0.32300
O17         O  0.27123884  0.20456956  0.55618590    -1.29600
H18         H  0.17809689  0.19727865  0.42346809     0.32000
O19         O  0.19734908  0.21219153  0.44386521    -1.31300
O20         O  0.25026611  0.31806967  0.65039672    -0.87000
O21         O  0.25196501  0.30979106  0.34947289    -0.88500
O22         O  0.35074638  0.23199299  0.58088198    -0.87100
O23         O  0.13867610  0.26144166  0.58295967    -0.87200
O24         O  0.13566751  0.25583356  0.41968309    -0.86900
O25         O  0.34818187  0.23721527  0.42110623    -0.86700
O26         O  0.32375596  0.34125924  0.49361671    -0.87000
O27         O  0.21330162  0.35975587  0.50650936    -0.86500
O28         O  0.35769560  0.28966985  0.49275563    -0.87600
O29         O  0.15812463  0.32264880  0.51026728    -0.86700
O30         O  0.31451502  0.25023530  0.64917586    -0.87100
O31         O  0.30943733  0.24379740  0.35145072    -0.86800
O32         O  0.17560726  0.24666075  0.35066808    -0.86500
O33         O  0.17990682  0.25654367  0.65135469    -0.86900
O34         O  0.26746421  0.35474379  0.58227425    -0.87200
O35         O  0.25921044  0.35132204  0.41999120    -0.88500
Zr36       Zr  0.24593941  0.24894060  0.61511234     2.83100
Zr37       Zr  0.24199764  0.24353663  0.38690685     2.83500
Zr38       Zr  0.31414899  0.23451461  0.50089605     2.84100
Zr39       Zr  0.17121976  0.25603927  0.50110897     2.83400
Zr40       Zr  0.25992343  0.31765928  0.50120397     2.84200
O41         O  0.21421097  0.28666713  0.44491493    -1.09100
O42         O  0.28972693  0.27918779  0.55782454    -1.08600
C43         C  0.25779858  0.35142028  0.63015983     1.06000
C44         C  0.25737740  0.34454250  0.36993342     1.08700
C45         C  0.34706649  0.24223934  0.62948437     1.06200
C46         C  0.14612983  0.26097145  0.63242663     1.06600
C47         C  0.14239217  0.25130808  0.37027647     1.06200
C48         C  0.34314512  0.24202602  0.37225685     1.05700
C49         C  0.35406201  0.32507291  0.48892339     1.06100
C50         C  0.17813421  0.35478273  0.51203666     1.05700
H51         H  0.30379305  0.28931207  0.42532982     0.32300
O52         O  0.28590319  0.27496647  0.44588558    -1.30200
H53         H  0.20475574  0.30601408  0.57742978     0.32400
O54         O  0.21682966  0.28757134  0.55649246    -1.31600
N55         N  0.52942001  0.45363000  0.46866401    -0.37200
N56         N  0.03543894  0.00317895  0.56763464    -0.57700
N57         N  0.45849416  0.03144599  0.56319664    -0.37100
N58         N  0.45111761  0.98353385  0.46996533    -0.57700
C59         C  0.05546656  0.44018629  0.49315986     0.26400
C60         C  0.51067784  0.42495480  0.44051430     0.26400
C61         C  0.97844336  0.06082609  0.58912011     0.26400
C62         C  0.42919248  0.04635079  0.54083748     0.26400
C63         C  0.06778095  0.48993347  0.56382335     0.35100
C64         C  0.03776462  0.03259507  0.60289636     0.35100
C65         C  0.46087699  0.46206001  0.42066539     0.35100
C66         C  0.42514593  0.00659492  0.45779057     0.35100
C67         C  0.05647117  0.40213173  0.47863881    -0.22400
C68         C  0.52780462  0.39188932  0.44594586    -0.22400
C69         C  0.95807870  0.09204372  0.59085593    -0.22400
C70         C  0.42682462  0.08293541  0.56129309    -0.22400
C71         C  0.09040845  0.50940249  0.60183997    -0.23500
C72         C  0.07308373  0.03669834  0.62640073    -0.23500
C73         C  0.45168923  0.47941008  0.37553901    -0.23500
C74         C  0.41583258  0.00221599  0.40486186    -0.23500
C75         C  0.07843039  0.45998893  0.53184913    -0.18800
C76         C  0.47407275  0.42681887  0.42277407    -0.18800
C77         C  0.41146187  0.03312561  0.49297156    -0.18800
C78         C  0.01712166  0.06360157  0.59628580    -0.18800
H79         H  0.07483605  0.38252358  0.49406249     0.14100
H80         H  0.51786342  0.36382804  0.43095877     0.14100
H81         H  0.96782382  0.12034122  0.60467512     0.14100
H82         H  0.40800797  0.10321073  0.54901548     0.14100
H83         H  0.11942037  0.50603546  0.61094702     0.12400
H84         H  0.08458227  0.05908922  0.65331279     0.12400
H85         H  0.45869014  0.47149152  0.33560737     0.12400
H86         H  0.39658403  0.01753173  0.38318870     0.12400
H87         H  0.52208950  0.48117607  0.47292008     0.25600
H88         H  0.46749889  0.00486990  0.55543309     0.25600
O89         O  0.01113608  0.44088952  0.84455485    -0.87000
O90         O  0.00423405  0.43228768  0.14475860    -0.87200
O91         O  0.07025280  0.40649033  0.99499144    -0.88900
O92         O  0.45014176  0.39043287  0.97842270    -0.87600
O93         O  0.40267401  0.42884454  0.98447680    -0.87200
O94         O  0.10938468  0.45822244  0.97962581    -0.88600
O95         O  0.00420396  0.39184398  0.07302293    -0.87100
O96         O  0.01741549  0.39811934  0.90933815    -0.86600
Zr97       Zr  0.00945952  0.42911878  0.99421550     2.84300
O98         O  0.46949449  0.45729595  0.05391923    -1.08600
O99         O  0.04465618  0.47406205  0.94652338    -1.09400
C100        C  0.01496909  0.40669504  0.86084452     1.06100
C101        C  0.00370082  0.39806320  0.12336034     1.06000
C102        C  0.10190553  0.42242005  0.98182563     1.09000
C103        C  0.41534649  0.39650786  0.97619046     1.06800
H104        H  0.06084582  0.45421395  0.07337078     0.32300
O105        O  0.04471519  0.46949638  0.05446441    -1.29600
H106        H  0.45762976  0.44529615  0.91525540     0.32000
O107        O  0.47279837  0.46197291  0.93941051    -1.31300
O108        O  0.00128450  0.06546625  0.15858879    -0.87000
O109        O  0.00660859  0.07554484  0.85961648    -0.88500
O110        O  0.11374594  0.50818467  0.08650183    -0.87100
O111        O  0.39808450  0.48665690  0.07765319    -0.87200
O112        O  0.39849560  0.00080225  0.91693772    -0.86900
O113        O  0.11556844  0.01317440  0.92664043    -0.86700
O114        O  0.05908740  0.11677753  0.01311152    -0.87000
O115        O  0.43986411  0.09306483  0.00132424    -0.86500
O116        O  0.10751317  0.07936676  0.01294077    -0.87600
O117        O  0.40025451  0.04247868  0.01977739    -0.86700
O118        O  0.07104449  0.50017043  0.15312441    -0.87100
O119        O  0.07583872  0.00929332  0.85565379    -0.86800
O120        O  0.44123236  0.00767389  0.85027913    -0.86500
O121        O  0.43750876  0.48943491  0.14877418    -0.86900
O122        O  0.00108612  0.10856666  0.09343382    -0.87200
O123        O  0.99926210  0.11437483  0.93218306    -0.88500
Zr124      Zr  0.00498964  0.49923584  0.11382290     2.83100
Zr125      Zr  0.00771676  0.00673844  0.88753724     2.83500
Zr126      Zr  0.07877166  0.01393176  0.00450463     2.84100
Zr127      Zr  0.43256781  0.98997975  0.99744093     2.83400
Zr128      Zr  0.00259894  0.07564045  0.00781145     2.84200
O129        O  0.46769250  0.03420826  0.94796575    -1.09100
O130        O  0.04029677  0.04371567  0.06326365    -1.08600
C131        C  0.00038920  0.10018549  0.14226137     1.06000
C132        C  0.00226793  0.10902766  0.88214750     1.08700
C133        C  0.10536199  0.50304416  0.13485449     1.06200
C134        C  0.40364368  0.48637982  0.12754588     1.06600
C135        C  0.40685135  0.00613216  0.86841061     1.06200
C136        C  0.10973382  0.01054517  0.87684737     1.05700
C137        C  0.09394598  0.11190680  0.01592740     1.06100
C138        C  0.40843171  0.07766649  0.01603152     1.05700
H139        H  0.05851237  0.06639900  0.93148085     0.32300
O140        O  0.04278364  0.04767416  0.94941027    -1.30200
H141        H  0.45146570  0.04467641  0.08072503     0.32400
O142        O  0.46743452  0.03126105  0.05772472    -1.31600
N143        N  0.26591206  0.22613505  0.06798310    -0.37200
N144        N  0.30650888  0.23060118  0.96901579    -0.57700
N145        N  0.27237553  0.29896475  0.94074162    -0.37100
N146        N  0.22417995  0.28425658  0.02902878    -0.57700
C147        C  0.28448940  0.19573241  0.07262421     0.26400
C148        C  0.23502452  0.21997862  0.09655311     0.26400
C149        C  0.28591182  0.28313025  0.89678177     0.26400
C150        C  0.23970004  0.31163001  0.92703421     0.26400
C151        C  0.31288058  0.19579172  0.98267021     0.35100
C152        C  0.31950539  0.23437800  0.91984964     0.35100
C153        C  0.20153388  0.27044013  0.06648046     0.35100
C154        C  0.21063030  0.31584488  0.01397560     0.35100
C155        C  0.26965872  0.17373448  0.11262210    -0.22400
C156        C  0.23703866  0.18837469  0.12610471    -0.22400
C157        C  0.26165168  0.28498812  0.85470561    -0.22400
C158        C  0.23260205  0.30439224  0.87370467    -0.22400
C159        C  0.32945919  0.17700743  0.94103662    -0.23500
C160        C  0.33333799  0.20167288  0.90065142    -0.23500
C161        C  0.17382129  0.29379904  0.07752201    -0.23500
C162        C  0.18080827  0.32408560  0.04615924    -0.23500
C163        C  0.30709321  0.18206013  0.03358455    -0.18800
C164        C  0.20178496  0.23365345  0.08197410    -0.18800
C165        C  0.21596130  0.32824811  0.96252722    -0.18800
C166        C  0.32076620  0.26861369  0.89528533    -0.18800
H167        H  0.27758138  0.14647914  0.12398357     0.14100
H168        H  0.21541045  0.17459675  0.14965003     0.14100
H169        H  0.26517356  0.27453723  0.81465363     0.14100
H170        H  0.20823410  0.31088089  0.85157973     0.14100
H171        H  0.33856462  0.14883108  0.94025943     0.12400
H172        H  0.34600618  0.19670013  0.86291653     0.12400
H173        H  0.15036829  0.28868513  0.10350348     0.12400
H174        H  0.16270369  0.34663333  0.04273416     0.12400
H175        H  0.27145448  0.24662030  0.04080572     0.25600
H176        H  0.28554210  0.30207969  0.97772160     0.25600
C177        C  0.99264615  0.25555997  0.25443315    -0.03000
C178        C  0.25473741  0.99120316  0.24720422    -0.03000
C179        C  0.99703344  0.25077602  0.75160812    -0.03000
C180        C  0.25537963  0.00286716  0.75209993    -0.03000
C181        C  0.20590721  0.02396254  0.18594390    -0.03600
C182        C  0.21533002  0.49082054  0.21318058     0.07300
C183        C  0.18370604  0.46125667  0.21330304    -0.02500
C184        C  0.14920058  0.46490457  0.18577504    -0.02500
C185        C  0.13953582  0.49992276  0.16931373     0.07400
C186        C  0.16888706  0.02965298  0.16874577    -0.02700
Br187      Br  0.15715164  0.07847341  0.14446367    -0.01200
Br188      Br  0.24247536  0.06357248  0.16536866    -0.01300
Br189      Br  0.11403964  0.42124477  0.16915626    -0.01300
Br190      Br  0.17712313  0.41825644  0.25818888    -0.01300
C191        C  0.33164838  0.97475145  0.13465494    -0.02400
C192        C  0.36703851  0.48383664  0.15990677     0.07300
C193        C  0.36567001  0.49137197  0.21460715    -0.02500
C194        C  0.33063679  0.49198087  0.24166296    -0.02500
C195        C  0.29441166  0.49106578  0.21431889     0.07400
C196        C  0.29707445  0.98348967  0.15789167    -0.02700
Br197      Br  0.25614147  0.98219789  0.10721795    -0.01200
Br198      Br  0.32890697  0.94228319  0.07103216    -0.01300
Br199      Br  0.33646971  0.50277932  0.31627389    -0.01300
Br200      Br  0.41233883  0.50187771  0.25332796    -0.01300
C201        C  0.49727072  0.29156155  0.16258770    -0.02400
C202        C  0.99441921  0.29253449  0.21846506     0.07300
C203        C  0.99159749  0.33015416  0.24209024    -0.02500
C204        C  0.99411244  0.36379261  0.21214280    -0.02500
C205        C  0.00161279  0.36253295  0.15740020     0.07400
C206        C  0.50602368  0.32527857  0.13519682    -0.02700
Br207      Br  0.52990143  0.31889271  0.06802779    -0.01200
Br208      Br  0.48227008  0.24774427  0.11714456    -0.01300
Br209      Br  0.99261273  0.41238682  0.24924077    -0.01300
Br210      Br  0.99096579  0.33866713  0.31742796    -0.01300
C211        C  0.46197287  0.14647140  0.19464227    -0.02400
C212        C  0.99762931  0.13477019  0.17980910     0.07300
C213        C  0.02848122  0.16137520  0.18808981    -0.02500
C214        C  0.02437751  0.20043888  0.20111374    -0.02500
C215        C  0.99056019  0.21342529  0.22284950     0.07400
C216        C  0.45885876  0.18269806  0.22134206    -0.02700
Br217      Br  0.41322296  0.18160259  0.26029759    -0.01200
Br218      Br  0.41878235  0.11031051  0.18170618    -0.01300
Br219      Br  0.06574984  0.23596062  0.18584907    -0.01300
Br220      Br  0.07645018  0.14141939  0.18967078    -0.01300
C221        C  0.19835639  0.39160201  0.95802620    -0.02400
C222        C  0.18967385  0.35349933  0.94368895     0.07300
C223        C  0.15256948  0.33821505  0.93563200    -0.02500
C224        C  0.12340159  0.36052647  0.94769542    -0.02500
C225        C  0.13184516  0.39841491  0.96738241     0.07400
C226        C  0.16968102  0.41345542  0.97334415    -0.02700
Br227      Br  0.18376807  0.45946551  0.01463829    -0.01200
Br228      Br  0.25026269  0.41049591  0.96907431    -0.01300
Br229      Br  0.07315306  0.33582122  0.94392551    -0.01300
Br230      Br  0.14254132  0.28398407  0.92313134    -0.01300
C231        C  0.35082087  0.33418690  0.88715461    -0.02400
C232        C  0.35256296  0.29829822  0.90873596     0.07300
C233        C  0.37839590  0.29535470  0.95100080    -0.02500
C234        C  0.39490499  0.32819342  0.97737967    -0.02500
C235        C  0.38915753  0.36405258  0.95903682     0.07400
C236        C  0.36549230  0.36701141  0.91511643    -0.02700
Br237      Br  0.35353644  0.41550734  0.89119493    -0.01200
Br238      Br  0.33264919  0.33799301  0.81592562    -0.01300
Br239      Br  0.42366074  0.32419043  0.04145121    -0.01300
Br240      Br  0.39900101  0.24871357  0.96709124    -0.01300
C241        C  0.39152936  0.13870511  0.05313663    -0.02400
C242        C  0.38026867  0.10195606  0.03152675     0.07300
C243        C  0.34171112  0.08891087  0.02582517    -0.02500
C244        C  0.31551846  0.11497014  0.03253859    -0.02500
C245        C  0.32811931  0.15193839  0.04802202     0.07400
C246        C  0.36442852  0.16251182  0.06535143    -0.02700
Br247      Br  0.37699014  0.21200642  0.09850433    -0.01200
Br248      Br  0.44282044  0.16015598  0.06120913    -0.01300
Br249      Br  0.26333097  0.10212905  0.01472686    -0.01300
Br250      Br  0.32325546  0.03795524  0.00237367    -0.01300
C251        C  0.14274301  0.19422371  0.09197106    -0.02400
C252        C  0.17253171  0.20526109  0.06009983     0.07300
C253        C  0.17482235  0.18794914  0.00890442    -0.02500
C254        C  0.14894104  0.15721973  0.99323905    -0.02500
C255        C  0.11959143  0.14621827  0.02682385     0.07400
C256        C  0.11329166  0.16969947  0.07091828    -0.02700
Br257      Br  0.06442855  0.18709495  0.07492299    -0.01200
Br258      Br  0.14676400  0.20793312  0.16591117    -0.01300
Br259      Br  0.14900864  0.13486680  0.92297131    -0.01300
Br260      Br  0.21315743  0.20467862  0.96067391    -0.01300
C261        C  0.34799998  0.03743663  0.84166928    -0.02400
C262        C  0.37288025  0.00947335  0.83234153     0.07300
C263        C  0.36621092  0.48502135  0.79404480    -0.02500
C264        C  0.33046136  0.48212169  0.76772424    -0.02500
C265        C  0.29770482  0.00510755  0.78024790     0.07400
C266        C  0.31227394  0.03645692  0.81519865    -0.02700
Br267      Br  0.28610203  0.08090196  0.82799101    -0.01200
Br268      Br  0.36609755  0.08018554  0.88708298    -0.01300
Br269      Br  0.33237764  0.44879895  0.70521268    -0.01300
Br270      Br  0.40533411  0.45338028  0.77303469    -0.01300
C271        C  0.17996202  0.99098683  0.76365380    -0.02400
C272        C  0.21734244  0.99869668  0.78796131     0.07300
C273        C  0.21926193  0.50490106  0.84633611    -0.02500
C274        C  0.18527758  0.51250139  0.87261908    -0.02500
C275        C  0.14592399  0.00723749  0.84472354     0.07400
C276        C  0.14576337  0.99340517  0.79206196    -0.02700
Br277      Br  0.09788771  0.97906638  0.75705706    -0.01200
Br278      Br  0.17091822  0.97771655  0.69023807    -0.01300
Br279      Br  0.19210957  0.53997564  0.94018939    -0.01300
Br280      Br  0.26158961  0.50095597  0.89320764    -0.01300
C281        C  0.50887072  0.18116134  0.87241281    -0.02400
C282        C  0.99942870  0.14479562  0.85003342     0.07300
C283        C  0.98248624  0.14295338  0.79981029    -0.02500
C284        C  0.98178518  0.17584700  0.76894762    -0.02500
C285        C  0.99371841  0.21420692  0.78944053     0.07400
C286        C  0.50193314  0.21477061  0.84575470    -0.02700
Br287      Br  0.49796060  0.25897203  0.89186579    -0.01200
Br288      Br  0.53645984  0.18772893  0.93825225    -0.01300
Br289      Br  0.96311466  0.16363886  0.69870512    -0.01300
Br290      Br  0.95783820  0.09471189  0.77402263    -0.01300
C291        C  0.04229516  0.35037601  0.81558796    -0.02400
C292        C  0.01206282  0.37223934  0.82367618     0.07300
C293        C  0.47670769  0.35431812  0.81117109    -0.02500
C294        C  0.47226445  0.31986661  0.78105155    -0.02500
C295        C  0.00073161  0.29324417  0.78077333     0.07400
C296        C  0.03629019  0.31074120  0.80235242    -0.02700
Br297      Br  0.07763172  0.28325132  0.82210110    -0.01200
Br298      Br  0.09216774  0.37563961  0.82178975    -0.01300
Br299      Br  0.43275427  0.32394593  0.72922739    -0.01300
Br300      Br  0.43361242  0.37817243  0.83367707    -0.01300
C301        C  0.38631951  0.23866574  0.71660183    -0.02400
C302        C  0.38436391  0.24455494  0.66201271     0.07300
C303        C  0.41974655  0.24971728  0.63640391    -0.02500
C304        C  0.45452721  0.24526599  0.66225755    -0.02500
C305        C  0.45779705  0.24580750  0.71882384     0.07400
C306        C  0.42163422  0.24096776  0.74479665    -0.02700
Br307      Br  0.41763150  0.24178401  0.82036298    -0.01200
Br308      Br  0.34009419  0.22835055  0.75385538    -0.01300
Br309      Br  0.49283979  0.22883905  0.61504412    -0.01300
Br310      Br  0.42332146  0.26691335  0.56536825    -0.01300
C311        C  0.10533349  0.23992486  0.71076538    -0.02400
C312        C  0.11105473  0.26264560  0.66711828     0.07300
C313        C  0.07963275  0.28165601  0.65132122    -0.02500
C314        C  0.04586435  0.28020641  0.68092113    -0.02500
C315        C  0.03629530  0.25109433  0.71796899     0.07400
C316        C  0.06827866  0.22930553  0.72949117    -0.02700
Br317      Br  0.06926562  0.18822927  0.77686726    -0.01200
Br318      Br  0.14927163  0.22354374  0.74607041    -0.01300
Br319      Br  0.01366379  0.31954539  0.66632228    -0.01300
Br320      Br  0.08094615  0.31046523  0.58793456    -0.01300
C321        C  0.27943468  0.09754965  0.66742687    -0.02400
C322        C  0.24471450  0.11355579  0.66534831     0.07300
C323        C  0.21504387  0.09365489  0.69022674    -0.02500
C324        C  0.22146911  0.06578368  0.72622333    -0.02500
C325        C  0.25329164  0.04321228  0.72215932     0.07400
C326        C  0.28335380  0.06209989  0.69204078    -0.02700
Br327      Br  0.33034083  0.04141237  0.67929206    -0.01200
Br328      Br  0.32130354  0.12375956  0.63295043    -0.01300
Br329      Br  0.19788154  0.08049779  0.79095192    -0.01300
Br330      Br  0.16456518  0.10506255  0.67937132    -0.01300
C331        C  0.25181498  0.42857554  0.74387552    -0.02400
C332        C  0.25448111  0.46471347  0.71841289     0.07300
C333        C  0.25352490  0.46102047  0.66166582    -0.02500
C334        C  0.25578396  0.42516204  0.63417739    -0.02500
C335        C  0.25464981  0.38989967  0.66074458     0.07400
C336        C  0.24911587  0.39273965  0.71554114    -0.02700
Br337      Br  0.23665779  0.34725409  0.75332122    -0.01200
Br338      Br  0.25707869  0.42478272  0.81870835    -0.01300
Br339      Br  0.26015497  0.42724364  0.55811731    -0.01300
Br340      Br  0.24522226  0.50269576  0.61729109    -0.01300
C341        C  0.31735106  0.06876954  0.49128554    -0.02400
C342        C  0.32654265  0.10324717  0.46697091     0.07300
C343        C  0.35840093  0.10766819  0.43584088    -0.02500
C344        C  0.38651997  0.08373353  0.44197847    -0.02500
C345        C  0.38026310  0.05310242  0.47518974     0.07400
C346        C  0.34497563  0.04391240  0.49667973    -0.02700
Br347      Br  0.33636238  0.99972862  0.53823033    -0.01200
Br348      Br  0.26784298  0.05501273  0.51629341    -0.01300
Br349      Br  0.43447705  0.09641114  0.41063064    -0.01300
Br350      Br  0.36228673  0.14524090  0.38350011    -0.01300
C351        C  0.07477521  0.11721153  0.49709780    -0.02400
C352        C  0.09650996  0.14269045  0.53056977     0.07300
C353        C  0.08836712  0.14511598  0.58437642    -0.02500
C354        C  0.05881837  0.12247586  0.60507942    -0.02500
C355        C  0.03836450  0.09579135  0.57227449     0.07400
C356        C  0.04509561  0.09437418  0.51750925    -0.02700
Br357      Br  0.01566478  0.06004649  0.46998331    -0.01200
Br358      Br  0.08781841  0.11020433  0.42506890    -0.01300
Br359      Br  0.04854661  0.12419287  0.67902739    -0.01300
Br360      Br  0.12221024  0.17390511  0.63080437    -0.01300
C361        C  0.14493374  0.39445644  0.57376528    -0.02400
C362        C  0.16036005  0.38888726  0.52382445     0.07300
C363        C  0.16024058  0.41705630  0.48660667    -0.02500
C364        C  0.13862175  0.44720018  0.49608998    -0.02500
C365        C  0.11488785  0.44624586  0.53960555     0.07400
C366        C  0.11972031  0.42173933  0.58058145    -0.02700
Br367      Br  0.08688045  0.41992959  0.64024589    -0.01200
Br368      Br  0.15868252  0.36567333  0.63243194    -0.01300
Br369      Br  0.13469366  0.48529598  0.44485280    -0.01300
Br370      Br  0.18593312  0.41254415  0.42097002    -0.01300
C371        C  0.44095688  0.39063646  0.49471866    -0.02400
C372        C  0.44566274  0.39751283  0.44006934     0.07300
C373        C  0.41851209  0.38184812  0.40315557    -0.02500
C374        C  0.38902713  0.35732044  0.41962474    -0.02500
C375        C  0.38615548  0.34870112  0.47288444     0.07400
C376        C  0.41097803  0.36617204  0.51072034    -0.02700
Br377      Br  0.40061055  0.36019908  0.58469221    -0.01200
Br378      Br  0.47110284  0.41770190  0.54989272    -0.01300
Br379      Br  0.35045239  0.33896279  0.36952183    -0.01300
Br380      Br  0.41830714  0.39668104  0.33091766    -0.01300
C381        C  0.08179646  0.22101392  0.32884186    -0.02400
C382        C  0.10794153  0.25252389  0.33551882     0.07300
C383        C  0.09688530  0.28688297  0.31921893    -0.02500
C384        C  0.06346020  0.28828211  0.28856572    -0.02500
C385        C  0.03248556  0.25781056  0.28877092     0.07400
C386        C  0.04380044  0.22438802  0.31370500    -0.02700
Br387      Br  0.00926882  0.18134959  0.32940238    -0.01200
Br388      Br  0.10043726  0.17244811  0.33316734    -0.01300
Br389      Br  0.07340496  0.32671639  0.23705610    -0.01300
Br390      Br  0.13100933  0.33160790  0.33428853    -0.01300
C391        C  0.41793602  0.26647001  0.26388391    -0.02400
C392        C  0.45350676  0.25827011  0.28795046     0.07300
C393        C  0.45098239  0.25267858  0.34337383    -0.02500
C394        C  0.41590555  0.24322838  0.36757401    -0.02500
C395        C  0.38051860  0.24790961  0.34207973     0.07400
C396        C  0.38287723  0.26220562  0.29098952    -0.02700
Br397      Br  0.33738356  0.27433877  0.25569538    -0.01200
Br398      Br  0.41272073  0.28213678  0.19247192    -0.01300
Br399      Br  0.41993992  0.22102785  0.43602601    -0.01300
Br400      Br  0.49272673  0.26500456  0.39260520    -0.01300
C401        C  0.27023336  0.41723670  0.36170066    -0.02400
C402        C  0.26160924  0.38079225  0.33665165     0.07300
C403        C  0.25719743  0.38110315  0.28142303    -0.02500
C404        C  0.25854140  0.41607226  0.25401710    -0.02500
C405        C  0.25736214  0.45321091  0.28096216     0.07400
C406        C  0.26289458  0.45164864  0.33743213    -0.02700
Br407      Br  0.26285175  0.49430635  0.38774451    -0.01200
Br408      Br  0.29968857  0.42175787  0.42653200    -0.01300
Br409      Br  0.25421274  0.40889090  0.17849145    -0.01300
Br410      Br  0.24930583  0.33321897  0.24195077    -0.01300
C411        C  0.27763829  0.06688444  0.27565778    -0.02400
C412        C  0.25310122  0.03175634  0.28160004     0.07300
C413        C  0.22045802  0.03793078  0.31313662    -0.02500
C414        C  0.21482339  0.07328201  0.33941376    -0.02500
C415        C  0.23911870  0.10616238  0.33350954     0.07400
C416        C  0.26907295  0.10286169  0.29879864    -0.02700
Br417      Br  0.29651674  0.14963183  0.27880212    -0.01200
Br418      Br  0.32152699  0.07295695  0.23115699    -0.01300
Br419      Br  0.17050553  0.07769169  0.38109032    -0.01300
Br420      Br  0.18163621  0.99821237  0.32569069    -0.01300
O421        O  0.24013864  0.67682163  0.34517920    -0.87000
O422        O  0.24235795  0.68137618  0.64761113    -0.87200
O423        O  0.27507784  0.63237603  0.47353310    -0.88900
O424        O  0.16091373  0.64645150  0.50554871    -0.87600
O425        O  0.12678780  0.69790064  0.50464106    -0.87200
O426        O  0.32941203  0.67072304  0.47537961    -0.88600
O427        O  0.23476170  0.63710532  0.57841430    -0.87100
O428        O  0.22730959  0.63594465  0.41182764    -0.86600
Zr429      Zr  0.22631197  0.67060169  0.49656289     2.84300
O430        O  0.19937951  0.71352872  0.55319253    -1.08600
O431        O  0.26938835  0.70343405  0.44295676    -1.09400
C432        C  0.23481514  0.64279611  0.36331402     1.06100
C433        C  0.24060300  0.64638119  0.62786826     1.06000
C434        C  0.31028738  0.63840293  0.46741764     1.09000
C435        C  0.13012051  0.66251805  0.50962004     1.06800
H436        H  0.28596677  0.68723399  0.57131780     0.32300
O437        O  0.27154895  0.70412234  0.55251647    -1.29600
H438        H  0.17944414  0.69549467  0.41809799     0.32000
O439        O  0.19830146  0.71040689  0.43922987    -1.31300
O440        O  0.24667175  0.81674171  0.64711867    -0.87000
O441        O  0.25317977  0.80959293  0.34765215    -0.88500
O442        O  0.34908083  0.73052452  0.57924436    -0.87100
O443        O  0.13680987  0.75868132  0.57697766    -0.87200
O444        O  0.13617673  0.75484620  0.41437821    -0.86900
O445        O  0.35096801  0.74003729  0.42065311    -0.86700
O446        O  0.32158574  0.84255012  0.49336436    -0.87000
O447        O  0.20822892  0.85585317  0.50382756    -0.86500
O448        O  0.35663086  0.79177250  0.49328649    -0.87600
O449        O  0.15377535  0.81768912  0.50696308    -0.86700
O450        O  0.31231373  0.74875434  0.64698797    -0.87100
O451        O  0.31159283  0.74340409  0.35048227    -0.86800
O452        O  0.17718585  0.74798548  0.34610533    -0.86500
O453        O  0.17751340  0.75454029  0.64601280    -0.86900
O454        O  0.26470248  0.85446819  0.58026344    -0.87200
O455        O  0.25762816  0.85095453  0.41853313    -0.88500
Zr456      Zr  0.24431753  0.74759862  0.61134504     2.83100
Zr457      Zr  0.24308232  0.74353010  0.38388382     2.83500
Zr458      Zr  0.31453576  0.73520805  0.49813142     2.84100
Zr459      Zr  0.17055638  0.75300201  0.49632434     2.83400
Zr460      Zr  0.25806823  0.81709946  0.49914913     2.84200
O461        O  0.21358432  0.78531092  0.44174526    -1.09100
O462        O  0.28840198  0.77880592  0.55535290    -1.08600
C463        C  0.25398059  0.85043473  0.62767935     1.06000
C464        C  0.25729786  0.84418047  0.36852494     1.08700
C465        C  0.34491666  0.74056208  0.62779685     1.06200
C466        C  0.14376615  0.75863516  0.62653922     1.06600
C467        C  0.14363507  0.75197453  0.36506883     1.06200
C468        C  0.34558860  0.74299152  0.37139769     1.05700
C469        C  0.35237872  0.82707020  0.48976306     1.06100
C470        C  0.17306678  0.85004602  0.50937084     1.05700
H471        H  0.30404132  0.79049830  0.42321137     0.32300
O472        O  0.28589970  0.77563581  0.44361891    -1.30200
H473        H  0.20223704  0.80354528  0.57364451     0.32400
O474        O  0.21492144  0.78558865  0.55269744    -1.31600
N475        N  0.52891681  0.95556898  0.47134558    -0.37200
N476        N  0.03359027  0.50266409  0.56309258    -0.57700
N477        N  0.45802016  0.53016342  0.55309401    -0.37100
N478        N  0.44678326  0.47858900  0.46329899    -0.57700
C479        C  0.05582107  0.94084917  0.49593980     0.26400
C480        C  0.50930448  0.92732774  0.44348164     0.26400
C481        C  0.97586876  0.56016201  0.58226827     0.26400
C482        C  0.42874427  0.54485949  0.53026860     0.26400
C483        C  0.06940395  0.98998014  0.56728370     0.35100
C484        C  0.03458387  0.53144440  0.59934555     0.35100
C485        C  0.45890040  0.96481549  0.42506839     0.35100
C486        C  0.42905945  0.50723538  0.44604669     0.35100
C487        C  0.05645291  0.90299825  0.47993298    -0.22400
C488        C  0.52604175  0.89393954  0.44754435    -0.22400
C489        C  0.95552300  0.59142952  0.58319554    -0.22400
C490        C  0.42420104  0.58011925  0.55386317    -0.22400
C491        C  0.09315229  0.00975188  0.60367410    -0.23500
C492        C  0.06925527  0.53536134  0.62478382    -0.23500
C493        C  0.43770313  0.97596565  0.38404281    -0.23500
C494        C  0.43015729  0.50778199  0.39158783    -0.23500
C495        C  0.07904581  0.95967216  0.53530799    -0.18800
C496        C  0.47261941  0.92964722  0.42638462    -0.18800
C497        C  0.41407318  0.53385451  0.47956106    -0.18800
C498        C  0.01439060  0.56273339  0.59187948    -0.18800
H499        H  0.07458725  0.88281829  0.49427140     0.14100
H500        H  0.51551500  0.86613491  0.43221519     0.14100
H501        H  0.96461261  0.61944824  0.59903046     0.14100
H502        H  0.40487015  0.60012032  0.54232095     0.14100
H503        H  0.12237497  0.00639785  0.61092802     0.12400
H504        H  0.07975826  0.55715665  0.65327004     0.12400
H505        H  0.43766635  0.96593000  0.34355645     0.12400
H506        H  0.41810222  0.52738886  0.36640999     0.12400
H507        H  0.52233458  0.98332425  0.47602467     0.25600
H508        H  0.46897978  0.50492263  0.54284663     0.25600
O509        O  0.00766542  0.94047060  0.84384685    -0.87000
O510        O  0.00427246  0.93274140  0.14595891    -0.87200
O511        O  0.06841971  0.90539483  0.99257775    -0.88900
O512        O  0.45033359  0.88904959  0.97549633    -0.87600
O513        O  0.40224210  0.92655425  0.98260803    -0.87200
O514        O  0.10811148  0.95741906  0.98212522    -0.88600
O515        O  0.00319332  0.89245815  0.07382016    -0.87100
O516        O  0.01215321  0.89711801  0.90835663    -0.86600
Zr517      Zr  0.00796118  0.92868272  0.99398034     2.84300
O518        O  0.46902977  0.95709720  0.05282739    -1.08600
O519        O  0.04304568  0.97355006  0.94559830    -1.09400
C520        C  0.01003926  0.90590477  0.85984926     1.06100
C521        C  0.00343252  0.89860374  0.12422578     1.06000
C522        C  0.10051997  0.92158086  0.98198453     1.09000
C523        C  0.41540138  0.89447105  0.97329137     1.06800
H524        H  0.05981474  0.95411892  0.07261468     0.32300
O525        O  0.04347423  0.96930574  0.05390800    -1.29600
H526        H  0.45613481  0.94476323  0.91397585     0.32000
O527        O  0.47128753  0.96156472  0.93798516    -1.31300
O528        O  0.00106221  0.56478427  0.15809779    -0.87000
O529        O  0.00895478  0.57504742  0.85792119    -0.88500
O530        O  0.11348804  0.00886754  0.08477688    -0.87100
O531        O  0.39760688  0.98602795  0.07789339    -0.87200
O532        O  0.40060178  0.50312272  0.91855090    -0.86900
O533        O  0.11775781  0.51458152  0.92855675    -0.86700
O534        O  0.06046031  0.61691444  0.01085079    -0.87000
O535        O  0.44203919  0.59490389  0.00637515    -0.86500
O536        O  0.10890283  0.57965941  0.01397420    -0.87600
O537        O  0.40149032  0.54403038  0.01990089    -0.86700
O538        O  0.07120483  0.00049136  0.15183737    -0.87100
O539        O  0.07850600  0.50871892  0.85728702    -0.86800
O540        O  0.44388125  0.50946121  0.85252360    -0.86500
O541        O  0.43739875  0.99007578  0.14882810    -0.86900
O542        O  0.00117876  0.60785739  0.09277582    -0.87200
O543        O  0.99980674  0.61377502  0.92989843    -0.88500
Zr544      Zr  0.00440678  0.99935177  0.11419133     2.83100
Zr545      Zr  0.00991851  0.50693989  0.88774643     2.83500
Zr546      Zr  0.08015247  0.51432195  0.00547831     2.84100
Zr547      Zr  0.43416639  0.49133362  0.99845970     2.83400
Zr548      Zr  0.00368348  0.57599596  0.00684440     2.84200
O549        O  0.47006540  0.53487919  0.94906519    -1.09100
O550        O  0.04089883  0.54399945  0.06319191    -1.08600
C551        C  0.00003674  0.59933311  0.14151519     1.06000
C552        C  0.00355658  0.60838319  0.87993002     1.08700
C553        C  0.10547354  0.00368347  0.13323140     1.06200
C554        C  0.40345380  0.98642515  0.12784205     1.06600
C555        C  0.40940875  0.50860063  0.87033774     1.06200
C556        C  0.11238010  0.51096543  0.87878749     1.05700
C557        C  0.09530914  0.61217916  0.01508998     1.06100
C558        C  0.40996127  0.57936760  0.01865148     1.05700
H559        H  0.06030165  0.56658631  0.93168400     0.32300
O560        O  0.04451614  0.54795017  0.94968022    -1.30200
H561        H  0.45284937  0.54515086  0.08177294     0.32400
O562        O  0.46902930  0.53181461  0.05900195    -1.31600
N563        N  0.26640696  0.72825029  0.06931032    -0.37200
N564        N  0.30429694  0.73050170  0.96761594    -0.57700
N565        N  0.27181279  0.80057031  0.93565293    -0.37100
N566        N  0.22299451  0.78306845  0.02303778    -0.57700
C567        C  0.28456254  0.69747583  0.07354299     0.26400
C568        C  0.23509798  0.72195859  0.09711513     0.26400
C569        C  0.28384261  0.78173473  0.89321702     0.26400
C570        C  0.23822121  0.81125169  0.92270088     0.26400
C571        C  0.31124174  0.69610145  0.98249312     0.35100
C572        C  0.31638502  0.73307508  0.91773450     0.35100
C573        C  0.20260348  0.77181627  0.06418416     0.35100
C574        C  0.21176772  0.81628500  0.01036025     0.35100
C575        C  0.26927145  0.67529920  0.11302760    -0.22400
C576        C  0.23672512  0.69017221  0.12640379    -0.22400
C577        C  0.25757116  0.77946087  0.85286524    -0.22400
C578        C  0.22888749  0.79981854  0.87106496    -0.22400
C579        C  0.32700019  0.67643706  0.94093719    -0.23500
C580        C  0.32989877  0.70003494  0.89934636    -0.23500
C581        C  0.17858637  0.79814594  0.07960306    -0.23500
C582        C  0.18542791  0.82751124  0.04649018    -0.23500
C583        C  0.30684470  0.68348020  0.03422570    -0.18800
C584        C  0.20194712  0.73545395  0.08147582    -0.18800
C585        C  0.21549954  0.82845864  0.95874592    -0.18800
C586        C  0.31850370  0.76697008  0.89238439    -0.18800
H587        H  0.27670687  0.64773177  0.12376713     0.14100
H588        H  0.21476783  0.67627372  0.14926968     0.14100
H589        H  0.25944876  0.76561436  0.81440659     0.14100
H590        H  0.20335921  0.80388162  0.84986897     0.14100
H591        H  0.33659953  0.64851294  0.94107679     0.12400
H592        H  0.34235291  0.69443507  0.86161508     0.12400
H593        H  0.15758652  0.79569825  0.10982537     0.12400
H594        H  0.16953218  0.85195012  0.04539602     0.12400
H595        H  0.27267171  0.74926413  0.04297473     0.25600
H596        H  0.28606926  0.80605899  0.97160919     0.25600
C597        C  0.99273303  0.75453122  0.25080886    -0.03000
C598        C  0.25527945  0.49189170  0.24730356    -0.03000
C599        C  0.99527013  0.74977576  0.74860433    -0.03000
C600        C  0.25832066  0.50431148  0.75357200    -0.03000
C601        C  0.20496606  0.52485945  0.18806631    -0.03600
C602        C  0.21511329  0.99026549  0.21261721     0.07300
C603        C  0.18302937  0.96123006  0.21297896    -0.02500
C604        C  0.14849305  0.96549538  0.18572268    -0.02500
C605        C  0.13994549  0.00038824  0.16731774     0.07400
C606        C  0.16750166  0.53001074  0.17241562    -0.02700
Br607      Br  0.15368650  0.57911206  0.15216788    -0.01200
Br608      Br  0.24002129  0.56603625  0.16796390    -0.01300
Br609      Br  0.11179450  0.92269752  0.17139355    -0.01300
Br610      Br  0.17661855  0.91757471  0.25675637    -0.01300
C611        C  0.33157489  0.47628752  0.13401200    -0.02400
C612        C  0.36696132  0.98367818  0.16040887     0.07300
C613        C  0.36534956  0.99186748  0.21493749    -0.02500
C614        C  0.33010407  0.99171584  0.24164278    -0.02500
C615        C  0.29395399  0.99036665  0.21415152     0.07400
C616        C  0.29729810  0.48511567  0.15797795    -0.02700
Br617      Br  0.25628353  0.48587845  0.10820678    -0.01200
Br618      Br  0.32791257  0.44600899  0.06839451    -0.01300
Br619      Br  0.33508160  0.00138748  0.31622934    -0.01300
Br620      Br  0.41177038  0.00410852  0.25391738    -0.01300
C621        C  0.49859462  0.79209520  0.15933267    -0.02400
C622        C  0.99452241  0.79198316  0.21618908     0.07300
C623        C  0.99306118  0.82926369  0.24150406    -0.02500
C624        C  0.99551639  0.86345048  0.21271615    -0.02500
C625        C  0.00182395  0.86289031  0.15767512     0.07400
C626        C  0.50682127  0.82625354  0.13277048    -0.02700
Br627      Br  0.53237411  0.82149040  0.06666526    -0.01200
Br628      Br  0.48538717  0.74851970  0.11299518    -0.01300
Br629      Br  0.99695124  0.91161067  0.25146895    -0.01300
Br630      Br  0.99494895  0.83604837  0.31726725    -0.01300
C631        C  0.46271436  0.64511500  0.19528534    -0.02400
C632        C  0.99718443  0.63373206  0.17867999     0.07300
C633        C  0.02777311  0.66071346  0.18453485    -0.02500
C634        C  0.02348501  0.69975418  0.19645998    -0.02500
C635        C  0.98980668  0.71284734  0.21820881     0.07400
C636        C  0.45909429  0.68282895  0.21690199    -0.02700
Br637      Br  0.40909431  0.68659725  0.24119463    -0.01200
Br638      Br  0.42050696  0.60695892  0.18742515    -0.01300
Br639      Br  0.06438828  0.73526699  0.17986232    -0.01300
Br640      Br  0.07597977  0.64120110  0.18363110    -0.01300
C641        C  0.19726006  0.89156494  0.95500863    -0.02400
C642        C  0.18859019  0.85335840  0.94127593     0.07300
C643        C  0.15151623  0.83768426  0.93512647    -0.02500
C644        C  0.12238356  0.85966979  0.94835330    -0.02500
C645        C  0.13074105  0.89789292  0.96705105     0.07400
C646        C  0.16867135  0.91365923  0.97007780    -0.02700
Br647      Br  0.18401737  0.96257411  0.00374404    -0.01200
Br648      Br  0.24932833  0.91049643  0.96525089    -0.01300
Br649      Br  0.07234653  0.83425837  0.94474051    -0.01300
Br650      Br  0.14163254  0.78350062  0.92151000    -0.01300
C651        C  0.34885990  0.83261312  0.88493493    -0.02400
C652        C  0.35061970  0.79646952  0.90581930     0.07300
C653        C  0.37770395  0.79284835  0.94635380    -0.02500
C654        C  0.39588758  0.82537864  0.97178106    -0.02500
C655        C  0.38965398  0.86165687  0.95505596     0.07400
C656        C  0.36479700  0.86511743  0.91254036    -0.02700
Br657      Br  0.35259645  0.91389926  0.89001052    -0.01200
Br658      Br  0.32755140  0.83735379  0.81555745    -0.01300
Br659      Br  0.42751338  0.82015009  0.03277445    -0.01300
Br660      Br  0.39676964  0.74540063  0.96246945    -0.01300
C661        C  0.39193447  0.64059277  0.05522247    -0.02400
C662        C  0.38123456  0.60357907  0.03406930     0.07300
C663        C  0.34262429  0.59034984  0.02844184    -0.02500
C664        C  0.31622522  0.61646161  0.03313510    -0.02500
C665        C  0.32832976  0.65354050  0.04863496     0.07400
C666        C  0.36448428  0.66434872  0.06650756    -0.02700
Br667      Br  0.37639400  0.71396325  0.09951781    -0.01200
Br668      Br  0.44301163  0.66220247  0.06465173    -0.01300
Br669      Br  0.26463672  0.60367269  0.01167551    -0.01300
Br670      Br  0.32404439  0.53873157  0.00925873    -0.01300
C671        C  0.14238258  0.69632704  0.08950179    -0.02400
C672        C  0.17304725  0.70673284  0.05882036     0.07300
C673        C  0.17670204  0.68792239  0.00883460    -0.02500
C674        C  0.15145362  0.65652808  0.99360776    -0.02500
C675        C  0.12082693  0.64670395  0.02558113     0.07400
C676        C  0.11343876  0.67124850  0.06802377    -0.02700
Br677      Br  0.06389047  0.68721592  0.07023293    -0.01200
Br678      Br  0.14590987  0.70934515  0.16367969    -0.01300
Br679      Br  0.15463756  0.63109288  0.92562766    -0.01300
Br680      Br  0.21578281  0.70347680  0.96136076    -0.01300
C681        C  0.35043928  0.53973025  0.84351187    -0.02400
C682        C  0.37573963  0.51213428  0.83406426     0.07300
C683        C  0.36319419  0.98282806  0.79165312    -0.02500
C684        C  0.32732061  0.98026684  0.76551443    -0.02500
C685        C  0.30070350  0.50705682  0.78163645     0.07400
C686        C  0.31496344  0.53861855  0.81640909    -0.02700
Br687      Br  0.28853039  0.58289244  0.82883983    -0.01200
Br688      Br  0.36681986  0.58148084  0.89164721    -0.01300
Br689      Br  0.32871010  0.94810132  0.70172016    -0.01300
Br690      Br  0.40267674  0.95268389  0.76795082    -0.01300
C691        C  0.18315536  0.49248557  0.76541447    -0.02400
C692        C  0.22049686  0.49933185  0.78985003     0.07300
C693        C  0.21596876  0.00579248  0.84402584    -0.02500
C694        C  0.18216581  0.01485624  0.86915333    -0.02500
C695        C  0.14899427  0.50753076  0.84717249     0.07400
C696        C  0.14901797  0.49731120  0.79301300    -0.02700
Br697      Br  0.10209863  0.49487297  0.75347214    -0.01200
Br698      Br  0.17420086  0.47560724  0.69307076    -0.01300
Br699      Br  0.18871759  0.04718750  0.93241726    -0.01300
Br700      Br  0.25715744  0.00097873  0.89217900    -0.01300
C701        C  0.50778545  0.68092576  0.87158738    -0.02400
C702        C  0.00021136  0.64384951  0.84721262     0.07300
C703        C  0.98349889  0.64141768  0.79676833    -0.02500
C704        C  0.98087602  0.67433333  0.76624804    -0.02500
C705        C  0.99252756  0.71300550  0.78639044     0.07400
C706        C  0.50033918  0.71405842  0.84388857    -0.02700
Br707      Br  0.49681468  0.75912978  0.88836397    -0.01200
Br708      Br  0.53417646  0.68885755  0.93835627    -0.01300
Br709      Br  0.95760890  0.66155046  0.69847012    -0.01300
Br710      Br  0.96171811  0.59204274  0.77029624    -0.01300
C711        C  0.03840536  0.85052158  0.81387403    -0.02400
C712        C  0.00760467  0.87156256  0.82205829     0.07300
C713        C  0.47360219  0.85373650  0.80606822    -0.02500
C714        C  0.46978263  0.81912005  0.77588322    -0.02500
C715        C  0.99843189  0.79267304  0.77715873     0.07400
C716        C  0.03353213  0.81095872  0.79924029    -0.02700
Br717      Br  0.07570988  0.78458126  0.81848675    -0.01200
Br718      Br  0.08758180  0.87697518  0.82292892    -0.01300
Br719      Br  0.43048828  0.82236214  0.72342680    -0.01300
Br720      Br  0.43007889  0.87746441  0.82670913    -0.01300
C721        C  0.38371304  0.73758576  0.71550861    -0.02400
C722        C  0.38188309  0.74253835  0.66064315     0.07300
C723        C  0.41723746  0.74680886  0.63491878    -0.02500
C724        C  0.45163893  0.74146198  0.66069737    -0.02500
C725        C  0.45512862  0.74369340  0.71710601     0.07400
C726        C  0.41909817  0.74005359  0.74356253    -0.02700
Br727      Br  0.41561700  0.74237273  0.81911310    -0.01200
Br728      Br  0.33746543  0.72918266  0.75332713    -0.01300
Br729      Br  0.48816239  0.72047849  0.61452707    -0.01300
Br730      Br  0.42180763  0.76548644  0.56474680    -0.01300
C731        C  0.10367481  0.74065235  0.70710968    -0.02400
C732        C  0.10831702  0.76065621  0.66077485     0.07300
C733        C  0.07574526  0.77738635  0.64329490    -0.02500
C734        C  0.04293752  0.77772599  0.67492752    -0.02500
C735        C  0.03431952  0.75015869  0.71436208     0.07400
C736        C  0.06697311  0.72960167  0.72665994    -0.02700
Br737      Br  0.06910036  0.68891317  0.77427603    -0.01200
Br738      Br  0.14822231  0.72831005  0.74475884    -0.01300
Br739      Br  0.01084219  0.81688714  0.65958315    -0.01300
Br740      Br  0.07313631  0.79933661  0.57467834    -0.01300
C741        C  0.28051101  0.59550339  0.66192525    -0.02400
C742        C  0.24701937  0.61358626  0.66317433     0.07300
C743        C  0.21920943  0.59882788  0.69635687    -0.02500
C744        C  0.22531340  0.56934475  0.73068915    -0.02500
C745        C  0.25565963  0.54465467  0.72337169     0.07400
C746        C  0.28492271  0.56178379  0.69027397    -0.02700
Br747      Br  0.33199448  0.54089754  0.67885965    -0.01200
Br748      Br  0.32070653  0.61770286  0.61981394    -0.01300
Br749      Br  0.20001438  0.57958678  0.79608115    -0.01300
Br750      Br  0.17238506  0.62115095  0.69783598    -0.01300
C751        C  0.24797201  0.92702645  0.74247367    -0.02400
C752        C  0.25086916  0.96317404  0.71711790     0.07300
C753        C  0.24922510  0.95957832  0.66052054    -0.02500
C754        C  0.24941624  0.92366289  0.63256514    -0.02500
C755        C  0.24981121  0.88849652  0.65886744     0.07400
C756        C  0.24554918  0.89116830  0.71396868    -0.02700
Br757      Br  0.23461709  0.84536476  0.75163746    -0.01200
Br758      Br  0.25128252  0.92357896  0.81758534    -0.01300
Br759      Br  0.24699945  0.92505867  0.55623682    -0.01300
Br760      Br  0.24318355  0.00211845  0.61746270    -0.01300
C761        C  0.32074407  0.57026095  0.47551645    -0.02400
C762        C  0.33028790  0.60537981  0.45268265     0.07300
C763        C  0.36303501  0.61032808  0.42314635    -0.02500
C764        C  0.39137346  0.58668905  0.43033649    -0.02500
C765        C  0.38380112  0.55425532  0.45964266     0.07400
C766        C  0.34782534  0.54453952  0.47865683    -0.02700
Br767      Br  0.33805926  0.49898585  0.51709747    -0.01200
Br768      Br  0.27235202  0.55732470  0.50578274    -0.01300
Br769      Br  0.44128651  0.60306317  0.40828874    -0.01300
Br770      Br  0.36745285  0.64656033  0.36942127    -0.01300
C771        C  0.07385124  0.61623414  0.49371911    -0.02400
C772        C  0.09682175  0.63992495  0.52798609     0.07300
C773        C  0.08803748  0.64246682  0.58163941    -0.02500
C774        C  0.05748737  0.62077023  0.60165397    -0.02500
C775        C  0.03671538  0.59457580  0.56837014     0.07400
C776        C  0.04393693  0.59336173  0.51364196    -0.02700
Br777      Br  0.01522495  0.55905559  0.46530391    -0.01200
Br778      Br  0.08421763  0.61342491  0.42027033    -0.01300
Br779      Br  0.04580345  0.62368351  0.67528971    -0.01300
Br780      Br  0.12060788  0.67206843  0.62867249    -0.01300
C781        C  0.13918673  0.88790345  0.57278591    -0.02400
C782        C  0.15475401  0.88351220  0.52256736     0.07300
C783        C  0.15696961  0.91355313  0.48807146    -0.02500
C784        C  0.13910426  0.94568483  0.50150115    -0.02500
C785        C  0.11464156  0.94438574  0.54402332     0.07400
C786        C  0.11659741  0.91722266  0.58220356    -0.02700
Br787      Br  0.08332984  0.91576253  0.64129196    -0.01200
Br788      Br  0.14989119  0.85562606  0.62898076    -0.01300
Br789      Br  0.14153183  0.98843109  0.45709880    -0.01300
Br790      Br  0.18099199  0.90954679  0.42092335    -0.01300
C791        C  0.43880845  0.89352207  0.49746369    -0.02400
C792        C  0.44458302  0.89962322  0.44281375     0.07300
C793        C  0.41929986  0.88174644  0.40506644    -0.02500
C794        C  0.38895455  0.85827230  0.42122455    -0.02500
C795        C  0.38446703  0.85116572  0.47471299     0.07400
C796        C  0.40877949  0.86889098  0.51298687    -0.02700
Br797      Br  0.39823085  0.86213998  0.58665894    -0.01200
Br798      Br  0.46860794  0.92073095  0.55287499    -0.01300
Br799      Br  0.35145029  0.83925925  0.36993853    -0.01300
Br800      Br  0.42344748  0.89053452  0.33117745    -0.01300
C801        C  0.08432574  0.72065965  0.32166749    -0.02400
C802        C  0.10933093  0.75296904  0.32986328     0.07300
C803        C  0.09668485  0.78712877  0.31525354    -0.02500
C804        C  0.06368180  0.78752530  0.28367163    -0.02500
C805        C  0.03326534  0.75651549  0.28382276     0.07400
C806        C  0.04596378  0.72293368  0.30698398    -0.02700
Br807      Br  0.01302551  0.67826814  0.32078561    -0.01200
Br808      Br  0.10493345  0.67288353  0.32524121    -0.01300
Br809      Br  0.07462510  0.82438709  0.23006354    -0.01300
Br810      Br  0.12754050  0.83337677  0.33357372    -0.01300
C811        C  0.42030768  0.76838940  0.26294635    -0.02400
C812        C  0.45564379  0.75788695  0.28524969     0.07300
C813        C  0.45323852  0.74995393  0.33998169    -0.02500
C814        C  0.41810658  0.74099671  0.36450051    -0.02500
C815        C  0.38285550  0.74802677  0.34050474     0.07400
C816        C  0.38536253  0.76401125  0.29048452    -0.02700
Br817      Br  0.33978146  0.77678572  0.25618780    -0.01200
Br818      Br  0.41444841  0.78364123  0.19129283    -0.01300
Br819      Br  0.42152758  0.71692776  0.43173656    -0.01300
Br820      Br  0.49538502  0.75988635  0.38880150    -0.01300
C821        C  0.26978430  0.91643737  0.36119809    -0.02400
C822        C  0.26161308  0.88021356  0.33567368     0.07300
C823        C  0.25746752  0.88042923  0.28054128    -0.02500
C824        C  0.25817710  0.91537281  0.25345227    -0.02500
C825        C  0.25670366  0.95244029  0.28066443     0.07400
C826        C  0.26207242  0.95074900  0.33727552    -0.02700
Br827      Br  0.26180265  0.99281730  0.38868931    -0.01200
Br828      Br  0.29973976  0.92075065  0.42584058    -0.01300
Br829      Br  0.25333560  0.90772590  0.17813511    -0.01300
Br830      Br  0.25135886  0.83240903  0.24079944    -0.01300
C831        C  0.27868576  0.56744399  0.27436793    -0.02400
C832        C  0.25388503  0.53255694  0.28093364     0.07300
C833        C  0.22067708  0.53923615  0.31092202    -0.02500
C834        C  0.21371748  0.57531701  0.33320494    -0.02500
C835        C  0.23880386  0.60750623  0.32822648     0.07400
C836        C  0.26996019  0.60366788  0.29612415    -0.02700
Br837      Br  0.29797190  0.65021191  0.27633496    -0.01200
Br838      Br  0.32219643  0.57312358  0.22911121    -0.01300
Br839      Br  0.16648779  0.58218884  0.36684096    -0.01300
Br840      Br  0.18241428  0.49962603  0.32565006    -0.01300
O841        O  0.73985392  0.17499238  0.34890780    -0.87000
O842        O  0.74216695  0.18078276  0.65054548    -0.87200
O843        O  0.77171963  0.13000956  0.48481577    -0.88900
O844        O  0.65977254  0.14637220  0.50461969    -0.87600
O845        O  0.62672495  0.19861855  0.50807360    -0.87200
O846        O  0.82645930  0.16780196  0.48632512    -0.88600
O847        O  0.73011795  0.13687591  0.58172767    -0.87100
O848        O  0.72705544  0.13454712  0.41591465    -0.86600
Zr849      Zr  0.72473420  0.17071247  0.49979810     2.84300
O850        O  0.69918063  0.21425938  0.55703519    -1.08600
O851        O  0.76852358  0.20188945  0.44538118    -1.09400
C852        C  0.73467082  0.14094888  0.36725321     1.06100
C853        C  0.73773082  0.14573795  0.63079691     1.06000
C854        C  0.80695455  0.13561021  0.48031244     1.09000
C855        C  0.62945938  0.16281278  0.51025794     1.06800
H856        H  0.78470440  0.18587191  0.57429667     0.32300
O857        O  0.77076934  0.20318688  0.55553484    -1.29600
H858        H  0.67812021  0.19588382  0.42223088     0.32000
O859        O  0.69723625  0.21079245  0.44288323    -1.31300
O860        O  0.74909588  0.31660110  0.64933362    -0.87000
O861        O  0.75228584  0.30885989  0.35027602    -0.88500
O862        O  0.85005179  0.23068266  0.58129051    -0.87100
O863        O  0.63819224  0.26011830  0.58231995    -0.87200
O864        O  0.63519061  0.25400878  0.41889725    -0.86900
O865        O  0.84893560  0.23641213  0.42173366    -0.86700
O866        O  0.82371668  0.34012344  0.49591924    -0.87000
O867        O  0.71261443  0.35764553  0.50618305    -0.86500
O868        O  0.85766415  0.28858543  0.49300906    -0.87600
O869        O  0.65735633  0.32061813  0.50940105    -0.86700
O870        O  0.81370215  0.24900520  0.64936901    -0.87100
O871        O  0.81010729  0.24290940  0.35201590    -0.86800
O872        O  0.67549814  0.24560895  0.35007574    -0.86500
O873        O  0.67950526  0.25545119  0.65069233    -0.86900
O874        O  0.76784322  0.35337833  0.58202290    -0.87200
O875        O  0.76037184  0.35047381  0.42072374    -0.88500
Zr876      Zr  0.74530616  0.24739663  0.61451805     2.83100
Zr877      Zr  0.74211565  0.24238861  0.38654571     2.83500
Zr878      Zr  0.81401305  0.23340485  0.50089468     2.84100
Zr879      Zr  0.67069871  0.25417589  0.50030042     2.83400
Zr880      Zr  0.75973496  0.31618861  0.50127475     2.84200
O881        O  0.71408212  0.28516468  0.44475642    -1.09100
O882        O  0.78944307  0.27781533  0.55798675    -1.08600
C883        C  0.75723296  0.34997498  0.62946165     1.06000
C884        C  0.75823427  0.34356094  0.37071783     1.08700
C885        C  0.84630782  0.24108354  0.62980661     1.06200
C886        C  0.64573270  0.25982114  0.63181862     1.06600
C887        C  0.64208766  0.24986827  0.36950246     1.06200
C888        C  0.84389828  0.24126399  0.37284181     1.05700
C889        C  0.85406572  0.32409548  0.49055372     1.06100
C890        C  0.67745481  0.35268838  0.51160639     1.05700
H891        H  0.80375342  0.28814991  0.42578555     0.32300
O892        O  0.78579485  0.27373082  0.44590611    -1.30200
H893        H  0.70413390  0.30425593  0.57663116     0.32400
O894        O  0.71627703  0.28584561  0.55576129    -1.31600
N895        N  0.02803669  0.45469849  0.46684660    -0.37200
N896        N  0.53466526  0.00146004  0.56869118    -0.57700
N897        N  0.95936681  0.03187251  0.56214832    -0.37100
N898        N  0.95124752  0.98349852  0.46906616    -0.57700
C899        C  0.55658844  0.43878832  0.49515720     0.26400
C900        C  0.00903727  0.42563440  0.43973225     0.26400
C901        C  0.47816632  0.06016955  0.58988796     0.26400
C902        C  0.92945980  0.04615300  0.54059566     0.26400
C903        C  0.56785757  0.48771509  0.56716723     0.35100
C904        C  0.53610267  0.03004430  0.60525200     0.35100
C905        C  0.95937118  0.46250136  0.41883395     0.35100
C906        C  0.92558685  0.00688686  0.45704298     0.35100
C907        C  0.55773593  0.40090793  0.47972104    -0.22400
C908        C  0.02621678  0.39267118  0.44564871    -0.22400
C909        C  0.45877632  0.09205496  0.59051532    -0.22400
C910        C  0.92611334  0.08232327  0.56200215    -0.22400
C911        C  0.59005984  0.50730837  0.60554991    -0.23500
C912        C  0.57057762  0.03304790  0.63111121    -0.23500
C913        C  0.94482054  0.47680777  0.37435575    -0.23500
C914        C  0.91567555  0.00230043  0.40428867    -0.23500
C915        C  0.57893211  0.45802172  0.53507319    -0.18800
C916        C  0.97247615  0.42727246  0.42169073    -0.18800
C917        C  0.91187883  0.03307358  0.49262597    -0.18800
C918        C  0.51677212  0.06182675  0.59775309    -0.18800
H919        H  0.57581157  0.38103980  0.49515808     0.14100
H920        H  0.01624121  0.36446668  0.43128456     0.14100
H921        H  0.46922080  0.12025035  0.60393274     0.14100
H922        H  0.90657105  0.10214294  0.55053005     0.14100
H923        H  0.61891686  0.50387131  0.61537200     0.12400
H924        H  0.58145949  0.05464117  0.65961791     0.12400
H925        H  0.94838472  0.46736569  0.33398762     0.12400
H926        H  0.89628600  0.01764778  0.38283559     0.12400
H927        H  0.02106176  0.48242228  0.47030295     0.25600
H928        H  0.96903670  0.00570709  0.55355817     0.25600
O929        O  0.51104237  0.44020083  0.84652308    -0.87000
O930        O  0.50439915  0.43152897  0.14591356    -0.87200
O931        O  0.56869889  0.40380079  0.99440254    -0.88900
O932        O  0.95148364  0.39044430  0.97734621    -0.87600
O933        O  0.90358055  0.42830550  0.98370327    -0.87200
O934        O  0.60853691  0.45562033  0.98284310    -0.88600
O935        O  0.50426245  0.39108176  0.07417251    -0.87100
O936        O  0.51681586  0.39719148  0.91114937    -0.86600
Zr937      Zr  0.50866863  0.42823732  0.99563882     2.84300
O938        O  0.96989533  0.45783141  0.05216209    -1.08600
O939        O  0.54442454  0.47279162  0.94812429    -1.09400
C940        C  0.51464237  0.40591723  0.86273443     1.06100
C941        C  0.50398495  0.39737585  0.12443751     1.06000
C942        C  0.60084896  0.41977088  0.98353188     1.09000
C943        C  0.91658440  0.39610467  0.97554675     1.06800
H944        H  0.56026750  0.45262451  0.07503443     0.32300
O945        O  0.54425284  0.46808543  0.05622434    -1.29600
H946        H  0.95807815  0.44535474  0.91378026     0.32000
O947        O  0.97312362  0.46227218  0.93777719    -1.31300
O948        O  0.50078387  0.06532728  0.15823153    -0.87000
O949        O  0.50648986  0.07483673  0.85921290    -0.88500
O950        O  0.61352002  0.50648835  0.08836433    -0.87100
O951        O  0.89788341  0.48691334  0.07589491    -0.87200
O952        O  0.89900110  0.00056360  0.91550770    -0.86900
O953        O  0.61595077  0.01362572  0.92795103    -0.86700
O954        O  0.55828020  0.11641495  0.01087144    -0.87000
O955        O  0.94025427  0.09370440  0.00102512    -0.86500
O956        O  0.60678057  0.07916854  0.01277553    -0.87600
O957        O  0.90051147  0.04292060  0.01838637    -0.86700
O958        O  0.57095015  0.49907557  0.15518228    -0.87100
O959        O  0.57609566  0.00912134  0.85712559    -0.86800
O960        O  0.94163983  0.00757318  0.84879178    -0.86500
O961        O  0.93750700  0.49028814  0.14693741    -0.86900
O962        O  0.50056161  0.10829878  0.09296232    -0.87200
O963        O  0.49814440  0.11329999  0.93178170    -0.88500
Zr964      Zr  0.50496232  0.49845555  0.11562878     2.83100
Zr965      Zr  0.50760365  0.00627999  0.88774856     2.83500
Zr966      Zr  0.57858392  0.01342691  0.00470809     2.84100
Zr967      Zr  0.93282065  0.99051302  0.99685554     2.83400
Zr968      Zr  0.50217791  0.07501618  0.00769696     2.84200
O969        O  0.96801777  0.03493179  0.94777045    -1.09100
O970        O  0.54018953  0.04348696  0.06331431    -1.08600
C971        C  0.49969682  0.10001256  0.14180466     1.06000
C972        C  0.50165604  0.10815643  0.88181688     1.08700
C973        C  0.60523781  0.50166314  0.13677842     1.06200
C974        C  0.90359193  0.48696925  0.12584265     1.06600
C975        C  0.90724986  0.00580489  0.86688915     1.06200
C976        C  0.61003898  0.01065878  0.87828372     1.05700
C977        C  0.59310186  0.11169266  0.01435520     1.06100
C978        C  0.90863785  0.07809107  0.01474311     1.05700
H979        H  0.55819467  0.06580570  0.93156566     0.32300
O980        O  0.54252582  0.04709889  0.94960603    -1.30200
H981        H  0.95145130  0.04514636  0.08038197     0.32400
O982        O  0.96754913  0.03176398  0.05752294    -1.31600
N983        N  0.76586127  0.22526532  0.07009189    -0.37200
N984        N  0.80625348  0.23001461  0.97001824    -0.57700
N985        N  0.77406071  0.29969885  0.93982836    -0.37100
N986        N  0.72415880  0.28174148  0.02427438    -0.57700
C987        C  0.78347461  0.19413691  0.07350995     0.26400
C988        C  0.73372648  0.21823208  0.09568495     0.26400
C989        C  0.78721375  0.28273518  0.89661421     0.26400
C990        C  0.74149094  0.31233379  0.92577261     0.26400
C991        C  0.81290430  0.19527721  0.98400655     0.35100
C992        C  0.81999356  0.23375354  0.92108608     0.35100
C993        C  0.70269656  0.26958622  0.06392459     0.35100
C994        C  0.71327426  0.31533503  0.01251430     0.35100
C995        C  0.76684348  0.17077136  0.11080039    -0.22400
C996        C  0.73403130  0.18539386  0.12301855    -0.22400
C997        C  0.76289814  0.28404035  0.85441934    -0.22400
C998        C  0.73408194  0.30416272  0.87274972    -0.22400
C999        C  0.83009012  0.17661658  0.94276724    -0.23500
C1000       C  0.83425921  0.20117837  0.90241913    -0.23500
C1001       C  0.67828167  0.29552882  0.07916275    -0.23500
C1002       C  0.68609096  0.32571538  0.04787338    -0.23500
C1003       C  0.80659676  0.18114917  0.03469587    -0.18800
C1004       C  0.70134529  0.23284098  0.07967616    -0.18800
C1005       C  0.71784602  0.32859528  0.96153082    -0.18800
C1006       C  0.82183182  0.26785355  0.89609130    -0.18800
H1007       H  0.77374608  0.14280530  0.12046793     0.14100
H1008       H  0.71116181  0.17091670  0.14361701     0.14100
H1009       H  0.76617240  0.27265238  0.81477904     0.14100
H1010       H  0.70955356  0.31020714  0.85062713     0.14100
H1011       H  0.83951810  0.14857534  0.94217796     0.12400
H1012       H  0.84754351  0.19631120  0.86508879     0.12400
H1013       H  0.65644181  0.29234903  0.10810122     0.12400
H1014       H  0.67022789  0.35017841  0.04713952     0.12400
H1015       H  0.77307427  0.24702836  0.04526650     0.25600
H1016       H  0.78717885  0.30308948  0.97684317     0.25600
C1017       C  0.49182583  0.25520793  0.25447773    -0.03000
C1018       C  0.75402842  0.98983875  0.24679735    -0.03000
C1019       C  0.49717734  0.25043420  0.75253632    -0.03000
C1020       C  0.75478313  0.00190082  0.75236003    -0.03000
C1021       C  0.70577699  0.02280479  0.18535245    -0.03600
C1022       C  0.71553887  0.48886870  0.21376728     0.07300
C1023       C  0.68378708  0.45947162  0.21439945    -0.02500
C1024       C  0.64893579  0.46346998  0.18785401    -0.02500
C1025       C  0.63956597  0.49849445  0.17095888     0.07400
C1026       C  0.66886436  0.02878383  0.16812562    -0.02700
Br1027     Br  0.65776678  0.07751751  0.14281412    -0.01200
Br1028     Br  0.74287819  0.06216105  0.16534922    -0.01300
Br1029     Br  0.61298214  0.42020500  0.17254216    -0.01300
Br1030     Br  0.67796561  0.41586354  0.25817406    -0.01300
C1031       C  0.83085416  0.97386335  0.13335583    -0.02400
C1032       C  0.86714349  0.48417144  0.15857943     0.07300
C1033       C  0.86590271  0.49253144  0.21310985    -0.02500
C1034       C  0.83096960  0.49147855  0.24069010    -0.02500
C1035       C  0.79453234  0.48971029  0.21391120     0.07400
C1036       C  0.79620958  0.98205576  0.15703774    -0.02700
Br1037     Br  0.75507766  0.98041085  0.10664977    -0.01200
Br1038     Br  0.82829691  0.94184772  0.06933345    -0.01300
Br1039     Br  0.83683030  0.50117863  0.31534059    -0.01300
Br1040     Br  0.91237048  0.50756767  0.25062425    -0.01300
C1041       C  0.99818059  0.29200911  0.16218816    -0.02400
C1042       C  0.49375832  0.29214699  0.21883306     0.07300
C1043       C  0.49140968  0.32975970  0.24272045    -0.02500
C1044       C  0.49501264  0.36345557  0.21311730    -0.02500
C1045       C  0.50198878  0.36199428  0.15830341     0.07400
C1046       C  0.00644802  0.32585987  0.13461604    -0.02700
Br1047     Br  0.03053379  0.31990232  0.06744500    -0.01200
Br1048     Br  0.98450018  0.24782155  0.11689769    -0.01300
Br1049     Br  0.49692568  0.41215103  0.25097398    -0.01300
Br1050     Br  0.48977619  0.33820056  0.31796324    -0.01300
C1051       C  0.96301023  0.14647885  0.19554139    -0.02400
C1052       C  0.49668982  0.13467190  0.17922251     0.07300
C1053       C  0.52750875  0.16133658  0.18766164    -0.02500
C1054       C  0.52324290  0.20036796  0.20060276    -0.02500
C1055       C  0.48955192  0.21319867  0.22267319     0.07400
C1056       C  0.95986784  0.18286839  0.22172436    -0.02700
Br1057     Br  0.91403062  0.18184367  0.26017914    -0.01200
Br1058     Br  0.92007624  0.10972775  0.18396022    -0.01300
Br1059     Br  0.56393810  0.23627390  0.18440841    -0.01300
Br1060     Br  0.57572007  0.14178424  0.18869183    -0.01300
C1061       C  0.69810058  0.39124564  0.95842917    -0.02400
C1062       C  0.69042500  0.35308032  0.94376448     0.07300
C1063       C  0.65354593  0.33669765  0.93716784    -0.02500
C1064       C  0.62378163  0.35798815  0.95038346    -0.02500
C1065       C  0.63131488  0.39604539  0.96980815     0.07400
C1066       C  0.66893425  0.41196395  0.97524620    -0.02700
Br1067     Br  0.68238577  0.45748765  0.01790967    -0.01200
Br1068     Br  0.74965704  0.41174045  0.96779461    -0.01300
Br1069     Br  0.57417000  0.33188393  0.94761111    -0.01300
Br1070     Br  0.64497495  0.28248507  0.92321363    -0.01300
C1071       C  0.85210840  0.33320909  0.88764776    -0.02400
C1072       C  0.85381668  0.29738591  0.90943808     0.07300
C1073       C  0.87976921  0.29454688  0.95164011    -0.02500
C1074       C  0.89686283  0.32752196  0.97714837    -0.02500
C1075       C  0.89060192  0.36334100  0.95898244     0.07400
C1076       C  0.86633743  0.36609886  0.91570336    -0.02700
Br1077     Br  0.85281786  0.41435090  0.89271914    -0.01200
Br1078     Br  0.83426928  0.33693432  0.81625589    -0.01300
Br1079     Br  0.92699763  0.32378254  0.04000003    -0.01300
Br1080     Br  0.89921735  0.24766896  0.96952045    -0.01300
C1081       C  0.89096134  0.13828366  0.05326659    -0.02400
C1082       C  0.88016204  0.10201163  0.02983953     0.07300
C1083       C  0.84172615  0.08863213  0.02333518    -0.02500
C1084       C  0.81518067  0.11413079  0.03144379    -0.02500
C1085       C  0.82734127  0.15078875  0.04898688     0.07400
C1086       C  0.86349520  0.16126709  0.06700575    -0.02700
Br1087     Br  0.87535171  0.20983324  0.10303236    -0.01200
Br1088     Br  0.94205154  0.16018534  0.06224363    -0.01300
Br1089     Br  0.76321210  0.10123400  0.01242392    -0.01300
Br1090     Br  0.82390584  0.03803681  0.99748489    -0.01300
C1091       C  0.64099154  0.19562903  0.08804814    -0.02400
C1092       C  0.67169582  0.20520515  0.05712929     0.07300
C1093       C  0.67501937  0.18633575  0.00721736    -0.02500
C1094       C  0.64890307  0.15579709  0.99178657    -0.02500
C1095       C  0.61851005  0.14626368  0.02428066     0.07400
C1096       C  0.61178139  0.17071080  0.06723157    -0.02700
Br1097     Br  0.56205965  0.18551470  0.07438166    -0.01200
Br1098     Br  0.64451804  0.21013780  0.16172327    -0.01300
Br1099     Br  0.65045213  0.13149461  0.92286820    -0.01300
Br1100     Br  0.71547070  0.20025228  0.96090282    -0.01300
C1101       C  0.84841540  0.03707977  0.83977368    -0.02400
C1102       C  0.87312087  0.00888656  0.83083245     0.07300
C1103       C  0.86592937  0.48425280  0.79199050    -0.02500
C1104       C  0.83004942  0.48102835  0.76598376    -0.02500
C1105       C  0.79734754  0.00412155  0.77998539     0.07400
C1106       C  0.81226366  0.03570322  0.81431631    -0.02700
Br1107     Br  0.78568957  0.07974441  0.82814490    -0.01200
Br1108     Br  0.86719148  0.08049980  0.88351906    -0.01300
Br1109     Br  0.83155854  0.44714037  0.70395828    -0.01300
Br1110     Br  0.90511569  0.45273341  0.77087817    -0.01300
C1111       C  0.67953321  0.99042288  0.76494025    -0.02400
C1112       C  0.71705339  0.99803601  0.78872910     0.07300
C1113       C  0.71987051  0.50310766  0.84680113    -0.02500
C1114       C  0.68607167  0.51028545  0.87396091    -0.02500
C1115       C  0.64613673  0.00706483  0.84622227     0.07400
C1116       C  0.64557027  0.99308369  0.79365505    -0.02700
Br1117     Br  0.59747022  0.97834210  0.75924817    -0.01200
Br1118     Br  0.66992589  0.97683372  0.69185384    -0.01300
Br1119     Br  0.69328673  0.53694716  0.94204141    -0.01300
Br1120     Br  0.76290479  0.49962859  0.89264406    -0.01300
C1121       C  0.00963614  0.18203073  0.87195810    -0.02400
C1122       C  0.49896429  0.14402592  0.84997087     0.07300
C1123       C  0.48241890  0.14239167  0.79952055    -0.02500
C1124       C  0.48199892  0.17542685  0.76892155    -0.02500
C1125       C  0.49370051  0.21368722  0.78994679     0.07400
C1126       C  0.00249335  0.21553473  0.84510344    -0.02700
Br1127     Br  0.99928873  0.26006077  0.89076591    -0.01200
Br1128     Br  0.03832081  0.18880094  0.93691002    -0.01300
Br1129     Br  0.46422425  0.16359318  0.69819288    -0.01300
Br1130     Br  0.45774920  0.09431939  0.77320033    -0.01300
C1131       C  0.54205527  0.34936002  0.81849154    -0.02400
C1132       C  0.51190154  0.37149078  0.82559110     0.07300
C1133       C  0.97681801  0.35485065  0.80991172    -0.02500
C1134       C  0.97229355  0.32038251  0.77980880    -0.02500
C1135       C  0.50063539  0.29264819  0.78226662     0.07400
C1136       C  0.53600453  0.30980521  0.80477421    -0.02700
Br1137     Br  0.57705582  0.28180780  0.82444581    -0.01200
Br1138     Br  0.59195645  0.37425809  0.82637860    -0.01300
Br1139     Br  0.93242151  0.32421137  0.72846583    -0.01300
Br1140     Br  0.93377465  0.37836300  0.83338741    -0.01300
C1141       C  0.88596811  0.23855780  0.71693041    -0.02400
C1142       C  0.88369112  0.24381605  0.66218823     0.07300
C1143       C  0.91893349  0.24897188  0.63621667    -0.02500
C1144       C  0.95385760  0.24479429  0.66178083    -0.02500
C1145       C  0.95746249  0.24594829  0.71833065     0.07400
C1146       C  0.92145891  0.24137298  0.74477644    -0.02700
Br1147     Br  0.91801079  0.24349471  0.82045215    -0.01200
Br1148     Br  0.84000220  0.22857518  0.75488296    -0.01300
Br1149     Br  0.99197375  0.22808130  0.61439592    -0.01300
Br1150     Br  0.92218201  0.26616806  0.56517103    -0.01300
C1151       C  0.60533230  0.23876981  0.71051497    -0.02400
C1152       C  0.61087776  0.26158650  0.66686915     0.07300
C1153       C  0.57951435  0.28090064  0.65171072    -0.02500
C1154       C  0.54633134  0.28022293  0.68245531    -0.02500
C1155       C  0.53659347  0.25095251  0.71917814     0.07400
C1156       C  0.56839495  0.22876516  0.73014266    -0.02700
Br1157     Br  0.56922129  0.18771014  0.77760902    -0.01200
Br1158     Br  0.64925816  0.22091222  0.74412471    -0.01300
Br1159     Br  0.51511169  0.32062416  0.66940476    -0.01300
Br1160     Br  0.57947546  0.30814623  0.58697615    -0.01300
C1161       C  0.77860325  0.09650104  0.66771426    -0.02400
C1162       C  0.74375115  0.11221529  0.66496908     0.07300
C1163       C  0.71407160  0.09226738  0.68985141    -0.02500
C1164       C  0.72064874  0.06468660  0.72626252    -0.02500
C1165       C  0.75249391  0.04212528  0.72222982     0.07400
C1166       C  0.78243428  0.06088702  0.69188200    -0.02700
Br1167     Br  0.82894651  0.03960508  0.67795899    -0.01200
Br1168     Br  0.82096311  0.12360850  0.63560428    -0.01300
Br1169     Br  0.69743201  0.07983009  0.79112387    -0.01300
Br1170     Br  0.66350893  0.10340975  0.67892511    -0.01300
C1171       C  0.75134580  0.42702231  0.74318905    -0.02400
C1172       C  0.75356162  0.46312634  0.71764010     0.07300
C1173       C  0.75213774  0.45936487  0.66086986    -0.02500
C1174       C  0.75427442  0.42350794  0.63335112    -0.02500
C1175       C  0.75379739  0.38835062  0.66000559     0.07400
C1176       C  0.74912798  0.39116274  0.71494851    -0.02700
Br1177     Br  0.73963628  0.34543231  0.75320449    -0.01200
Br1178     Br  0.75655025  0.42338049  0.81806754    -0.01300
Br1179     Br  0.75782710  0.42536624  0.55711845    -0.01300
Br1180     Br  0.74380890  0.50097857  0.61636837    -0.01300
C1181       C  0.81799700  0.06857427  0.49320255    -0.02400
C1182       C  0.82668299  0.10263401  0.46771517     0.07300
C1183       C  0.85827224  0.10709721  0.43615730    -0.02500
C1184       C  0.88665424  0.08363149  0.44253643    -0.02500
C1185       C  0.88053283  0.05278765  0.47532561     0.07400
C1186       C  0.84553687  0.04358542  0.49764416    -0.02700
Br1187     Br  0.83750676  0.99954554  0.53965287    -0.01200
Br1188     Br  0.76956210  0.05609091  0.52239539    -0.01300
Br1189     Br  0.93500738  0.09782880  0.41333426    -0.01300
Br1190     Br  0.86185208  0.14456690  0.38370874    -0.01300
C1191       C  0.57435042  0.11453537  0.49664088    -0.02400
C1192       C  0.59674704  0.13993344  0.52943572     0.07300
C1193       C  0.58944868  0.14239724  0.58349581    -0.02500
C1194       C  0.56038457  0.11966153  0.60524243    -0.02500
C1195       C  0.53922722  0.09305427  0.57309174     0.07400
C1196       C  0.54502651  0.09171320  0.51805408    -0.02700
Br1197     Br  0.51398859  0.05859641  0.47101179    -0.01200
Br1198     Br  0.58506568  0.10859944  0.42363123    -0.01300
Br1199     Br  0.55055567  0.12270577  0.67930182    -0.01300
Br1200     Br  0.62291740  0.17288425  0.62854387    -0.01300
C1201       C  0.64443811  0.39122553  0.57481499    -0.02400
C1202       C  0.65996058  0.38671243  0.52474312     0.07300
C1203       C  0.66094624  0.41620625  0.48944461    -0.02500
C1204       C  0.63972755  0.44646618  0.50037951    -0.02500
C1205       C  0.61540448  0.44441404  0.54323072     0.07400
C1206       C  0.61963821  0.41873552  0.58288712    -0.02700
Br1207     Br  0.58646466  0.41578097  0.64201908    -0.01200
Br1208     Br  0.65799563  0.36116801  0.63222117    -0.01300
Br1209     Br  0.63717625  0.48642819  0.45166080    -0.01300
Br1210     Br  0.68800482  0.41371864  0.42467045    -0.01300
C1211       C  0.93963110  0.39194469  0.49483826    -0.02400
C1212       C  0.94414752  0.39809371  0.43991414     0.07300
C1213       C  0.91748777  0.38086841  0.40345908    -0.02500
C1214       C  0.88855831  0.35604427  0.42073406    -0.02500
C1215       C  0.88595368  0.34804242  0.47421084     0.07400
C1216       C  0.91047716  0.36666445  0.51156651    -0.02700
Br1217     Br  0.90108981  0.36063514  0.58574834    -0.01200
Br1218     Br  0.96921061  0.42057396  0.54925247    -0.01300
Br1219     Br  0.85016209  0.33653331  0.37111378    -0.01300
Br1220     Br  0.91718462  0.39313697  0.33029096    -0.01300
C1221       C  0.58106041  0.22001593  0.32821678    -0.02400
C1222       C  0.60756620  0.25129913  0.33469296     0.07300
C1223       C  0.59660972  0.28579577  0.31874098    -0.02500
C1224       C  0.56299345  0.28754817  0.28853270    -0.02500
C1225       C  0.53180540  0.25724786  0.28870513     0.07400
C1226       C  0.54301214  0.22372333  0.31343466    -0.02700
Br1227     Br  0.50814235  0.18101898  0.32936111    -0.01200
Br1228     Br  0.59925448  0.17123613  0.33219165    -0.01300
Br1229     Br  0.57296724  0.32634948  0.23762278    -0.01300
Br1230     Br  0.63113104  0.33026543  0.33380612    -0.01300
C1231       C  0.91873462  0.26633015  0.26433242    -0.02400
C1232       C  0.95438890  0.25842810  0.28826240     0.07300
C1233       C  0.95188262  0.25260761  0.34369124    -0.02500
C1234       C  0.91682042  0.24272999  0.36785379    -0.02500
C1235       C  0.88135096  0.24741821  0.34258691     0.07400
C1236       C  0.88368441  0.26184900  0.29152907    -0.02700
Br1237     Br  0.83808855  0.27324170  0.25598920    -0.01200
Br1238     Br  0.91343746  0.28081375  0.19241788    -0.01300
Br1239     Br  0.92092025  0.21957266  0.43558526    -0.01300
Br1240     Br  0.99349770  0.26508393  0.39304530    -0.01300
C1241       C  0.77171183  0.41596751  0.36200248    -0.02400
C1242       C  0.76269019  0.37954632  0.33728490     0.07300
C1243       C  0.75808864  0.37958066  0.28214249    -0.02500
C1244       C  0.75944469  0.41441849  0.25455979    -0.02500
C1245       C  0.75808937  0.45160489  0.28132308     0.07400
C1246       C  0.76392114  0.45021798  0.33780084    -0.02700
Br1247     Br  0.76396886  0.49277987  0.38828383    -0.01200
Br1248     Br  0.80283743  0.42060036  0.42534825    -0.01300
Br1249     Br  0.75554651  0.40672786  0.17918074    -0.01300
Br1250     Br  0.75011086  0.33150165  0.24303764    -0.01300
C1251       C  0.77762742  0.06531110  0.27600928    -0.02400
C1252       C  0.75242014  0.03052744  0.28105212     0.07300
C1253       C  0.71918101  0.03734565  0.31118662    -0.02500
C1254       C  0.71319564  0.07313283  0.33589592    -0.02500
C1255       C  0.73860605  0.10529745  0.33196331     0.07400
C1256       C  0.76936849  0.10143435  0.29899297    -0.02700
Br1257     Br  0.79779855  0.14792595  0.28008743    -0.01200
Br1258     Br  0.82206723  0.07090912  0.23273302    -0.01300
Br1259     Br  0.66670738  0.07978286  0.37136676    -0.01300
Br1260     Br  0.68003123  0.99810052  0.32449357    -0.01300
O1261       O  0.73987945  0.67495806  0.34705405    -0.87000
O1262       O  0.74197430  0.68070120  0.64870779    -0.87200
O1263       O  0.77393164  0.63117908  0.47654127    -0.88900
O1264       O  0.66032060  0.64530807  0.50472570    -0.87600
O1265       O  0.62611638  0.69662567  0.50231513    -0.87200
O1266       O  0.82829893  0.66947332  0.47736263    -0.88600
O1267       O  0.73326382  0.63647894  0.57960972    -0.87100
O1268       O  0.72641534  0.63408520  0.41349841    -0.86600
Zr1269     Zr  0.72555686  0.66980496  0.49750746     2.84300
O1270       O  0.69875295  0.71280101  0.55402732    -1.08600
O1271       O  0.76904045  0.70222047  0.44394062    -1.09400
C1272       C  0.73429477  0.64086567  0.36506773     1.06100
C1273       C  0.73960464  0.64568946  0.62895681     1.06000
C1274       C  0.80902495  0.63717066  0.47000299     1.09000
C1275       C  0.62942365  0.66121410  0.50746324     1.06800
H1276       H  0.78520946  0.68634071  0.57225394     0.32300
O1277       O  0.77090602  0.70329083  0.55338298    -1.29600
H1278       H  0.67900043  0.69459951  0.41847260     0.32000
O1279       O  0.69783946  0.70943794  0.43972518    -1.31300
O1280       O  0.74595251  0.81595378  0.64751871    -0.87000
O1281       O  0.75258223  0.80837934  0.34829746    -0.88500
O1282       O  0.84862277  0.72953385  0.57994796    -0.87100
O1283       O  0.63610980  0.75626318  0.57746258    -0.87200
O1284       O  0.63663114  0.75581683  0.41437877    -0.86900
O1285       O  0.85056017  0.73890142  0.42156001    -0.86700
O1286       O  0.82126961  0.84195359  0.49477498    -0.87000
O1287       O  0.70833234  0.85523066  0.50253772    -0.86500
O1288       O  0.85620461  0.79112355  0.49434625    -0.87600
O1289       O  0.65397350  0.81705758  0.50733995    -0.86700
O1290       O  0.81214223  0.74884605  0.64736190    -0.87100
O1291       O  0.81127656  0.74216206  0.35125100    -0.86800
O1292       O  0.67759133  0.74772420  0.34634891    -0.86500
O1293       O  0.67690352  0.75305401  0.64668918    -0.86900
O1294       O  0.76445428  0.85360695  0.58082190    -0.87200
O1295       O  0.75692554  0.84972796  0.41910921    -0.88500
Zr1296     Zr  0.74382172  0.74682072  0.61213231     2.83100
Zr1297     Zr  0.74296031  0.74224533  0.38464462     2.83500
Zr1298     Zr  0.81409401  0.73428222  0.49908953     2.84100
Zr1299     Zr  0.67012000  0.75210196  0.49671024     2.83400
Zr1300     Zr  0.75784015  0.81611336  0.49981907     2.84200
O1301       O  0.71358891  0.78400514  0.44251517    -1.09100
O1302       O  0.78800137  0.77789696  0.55622039    -1.08600
C1303       C  0.75344651  0.84960631  0.62810818     1.06000
C1304       C  0.75634638  0.84300391  0.36912615     1.08700
C1305       C  0.84470048  0.74040552  0.62817620     1.06200
C1306       C  0.64304699  0.75640767  0.62708308     1.06600
C1307       C  0.64421772  0.75269751  0.36512327     1.06200
C1308       C  0.84520895  0.74186377  0.37228092     1.05700
C1309       C  0.85207061  0.82650700  0.49117003     1.06100
C1310       C  0.67325080  0.84944387  0.50882029     1.05700
H1311       H  0.80382546  0.78940261  0.42410500     0.32300
O1312       O  0.78570385  0.77463208  0.44432325    -1.30200
H1313       H  0.70170721  0.80275856  0.57409079     0.32400
O1314       O  0.71443154  0.78476866  0.55328033    -1.31600
N1315       N  0.02825109  0.95600709  0.47066350    -0.37200
N1316       N  0.53388049  0.50080890  0.56505462    -0.57700
N1317       N  0.95771620  0.53169539  0.55319128    -0.37100
N1318       N  0.94888361  0.48094019  0.46236830    -0.57700
C1319       C  0.55615263  0.93998636  0.49676212     0.26400
C1320       C  0.00886143  0.92743229  0.44302350     0.26400
C1321       C  0.47591100  0.55825270  0.58308216     0.26400
C1322       C  0.92872682  0.54632834  0.52960584     0.26400
C1323       C  0.56842516  0.98782455  0.56984599     0.35100
C1324       C  0.53469117  0.53007980  0.60044620     0.35100
C1325       C  0.95810817  0.96418301  0.42431146     0.35100
C1326       C  0.92770690  0.50729922  0.44618002     0.35100
C1327       C  0.55646852  0.90215924  0.48052889    -0.22400
C1328       C  0.02602602  0.89432282  0.44714269    -0.22400
C1329       C  0.45505805  0.58912468  0.58561682    -0.22400
C1330       C  0.92476296  0.58225212  0.55142617    -0.22400
C1331       C  0.59110612  0.00648854  0.60836370    -0.23500
C1332       C  0.56899892  0.53406329  0.62680179    -0.23500
C1333       C  0.93663671  0.97524250  0.38348538    -0.23500
C1334       C  0.92374700  0.50500629  0.39185414    -0.23500
C1335       C  0.57885794  0.95825541  0.53709005    -0.18800
C1336       C  0.97207330  0.92916586  0.42595414    -0.18800
C1337       C  0.91306115  0.53391207  0.48001876    -0.18800
C1338       C  0.51452416  0.56119811  0.59182779    -0.18800
H1339       H  0.57421830  0.88169318  0.49505269     0.14100
H1340       H  0.01582910  0.86639671  0.43191136     0.14100
H1341       H  0.46379271  0.61690091  0.60264736     0.14100
H1342       H  0.90577627  0.60228361  0.53887129     0.14100
H1343       H  0.62003276  0.00278538  0.61694301     0.12400
H1344       H  0.57932440  0.55627859  0.65479909     0.12400
H1345       H  0.93580693  0.96469291  0.34320376     0.12400
H1346       H  0.90849902  0.52266156  0.36743488     0.12400
H1347       H  0.02147026  0.98372247  0.47518426     0.25600
H1348       H  0.96787912  0.50578344  0.54462245     0.25600
O1349       O  0.50795325  0.94006115  0.84380647    -0.87000
O1350       O  0.50458880  0.93226368  0.14493694    -0.87200
O1351       O  0.56803850  0.90451063  0.99271128    -0.88900
O1352       O  0.95038081  0.88897356  0.97891695    -0.87600
O1353       O  0.90256835  0.92692162  0.98439659    -0.87200
O1354       O  0.60770790  0.95647358  0.98155548    -0.88600
O1355       O  0.50272396  0.89187757  0.07286053    -0.87100
O1356       O  0.51337420  0.89684744  0.90822465    -0.86600
Zr1357     Zr  0.50783067  0.92831907  0.99360030     2.84300
O1358       O  0.96907434  0.95770089  0.05258858    -1.08600
O1359       O  0.54306536  0.97312620  0.94553413    -1.09400
C1360       C  0.51096427  0.90556224  0.85973748     1.06100
C1361       C  0.50344515  0.89812131  0.12319237     1.06000
C1362       C  0.60013957  0.92056670  0.98186786     1.09000
C1363       C  0.91549017  0.89456006  0.97673000     1.06800
H1364       H  0.55963390  0.95360319  0.07253327     0.32300
O1365       O  0.54329754  0.96881011  0.05385309    -1.29600
H1366       H  0.95622337  0.94484423  0.91418460     0.32000
O1367       O  0.97150057  0.96180618  0.93785294    -1.31300
O1368       O  0.50108777  0.56418657  0.15975442    -0.87000
O1369       O  0.50948243  0.57464878  0.86059200    -0.88500
O1370       O  0.61319566  0.00825520  0.08482753    -0.87100
O1371       O  0.89693014  0.98621035  0.07641649    -0.87200
O1372       O  0.90043649  0.50260932  0.91642776    -0.86900
O1373       O  0.61849416  0.51122718  0.93128484    -0.86700
O1374       O  0.56209393  0.61503370  0.01352621    -0.87000
O1375       O  0.94121573  0.59445179  0.00072811    -0.86500
O1376       O  0.61000442  0.57706300  0.01559237    -0.87600
O1377       O  0.90152995  0.54388845  0.01851807    -0.86700
O1378       O  0.57104156  0.00025421  0.15208397    -0.87100
O1379       O  0.57917845  0.50760876  0.86003204    -0.86800
O1380       O  0.94361139  0.50932103  0.85032334    -0.86500
O1381       O  0.93675098  0.98987971  0.14736258    -0.86900
O1382       O  0.50145556  0.60745309  0.09461210    -0.87200
O1383       O  0.49957620  0.61322701  0.93230768    -0.88500
Zr1384     Zr  0.50444944  0.99905261  0.11421242     2.83100
Zr1385     Zr  0.51020320  0.50637269  0.88974374     2.83500
Zr1386     Zr  0.58009492  0.51246092  0.00732807     2.84100
Zr1387     Zr  0.93412055  0.49132400  0.99659225     2.83400
Zr1388     Zr  0.50433004  0.57540193  0.00907141     2.84200
O1389       O  0.96959059  0.53512689  0.94702374    -1.09100
O1390       O  0.54130020  0.54282721  0.06509892    -1.08600
C1391       C  0.50013537  0.59879978  0.14327713     1.06000
C1392       C  0.50362252  0.60791558  0.88238423     1.08700
C1393       C  0.60523361  0.00324681  0.13329620     1.06200
C1394       C  0.90275878  0.98621624  0.12634614     1.06600
C1395       C  0.90915097  0.50815396  0.86817371     1.06200
C1396       C  0.61303522  0.50830763  0.88149268     1.05700
C1397       C  0.59687466  0.60975392  0.01744337     1.06100
C1398       C  0.90983131  0.57915991  0.01596465     1.05700
H1399       H  0.56098739  0.56545333  0.93391831     0.32300
O1400       O  0.54499062  0.54695451  0.95184569    -1.30200
H1401       H  0.95263709  0.54555917  0.07982740     0.32400
O1402       O  0.96879035  0.53222844  0.05701021    -1.31600
N1403       N  0.76838152  0.72849895  0.07697288    -0.37200
N1404       N  0.80754186  0.73068140  0.97612846    -0.57700
N1405       N  0.77201593  0.79860489  0.94038091    -0.37100
N1406       N  0.72194393  0.77929134  0.02524268    -0.57700
C1407       C  0.78782166  0.69874099  0.08291771     0.26400
C1408       C  0.73700656  0.72146718  0.10434888     0.26400
C1409       C  0.78474911  0.77954574  0.89862466     0.26400
C1410       C  0.73855882  0.80914522  0.92628677     0.26400
C1411       C  0.81341472  0.69600096  0.99115239     0.35100
C1412       C  0.81841479  0.73227261  0.92559334     0.35100
C1413       C  0.70254435  0.76846139  0.06752118     0.35100
C1414       C  0.71044617  0.81250918  0.01280272     0.35100
C1415       C  0.77344576  0.67735153  0.12381691    -0.22400
C1416       C  0.73994483  0.69090241  0.13564298    -0.22400
C1417       C  0.75911080  0.77713302  0.85744339    -0.22400
C1418       C  0.73007321  0.79751051  0.87447959    -0.22400
C1419       C  0.82766429  0.67538382  0.94920568    -0.23500
C1420       C  0.83040847  0.69854679  0.90711947    -0.23500
C1421       C  0.67863102  0.79477255  0.08339016    -0.23500
C1422       C  0.68442247  0.82372170  0.04932742    -0.23500
C1423       C  0.80922425  0.68376199  0.04319266    -0.18800
C1424       C  0.70329287  0.73277089  0.08682497    -0.18800
C1425       C  0.71495437  0.82569426  0.96182748    -0.18800
C1426       C  0.81980051  0.76550536  0.89871011    -0.18800
H1427       H  0.78194795  0.65054214  0.13614198     0.14100
H1428       H  0.71837242  0.67667313  0.15882444     0.14100
H1429       H  0.76165468  0.76321571  0.81916426     0.14100
H1430       H  0.70483112  0.80133451  0.85246507     0.14100
H1431       H  0.83596149  0.64690986  0.94912109     0.12400
H1432       H  0.84138014  0.69207589  0.86864501     0.12400
H1433       H  0.65854093  0.79266638  0.11483065     0.12400
H1434       H  0.66855948  0.84820615  0.04853244     0.12400
H1435       H  0.77346802  0.74872128  0.04916348     0.25600
H1436       H  0.78573099  0.80435972  0.97669089     0.25600
C1437       C  0.49352718  0.75474107  0.25049347    -0.03000
C1438       C  0.75558273  0.49016885  0.24757364    -0.03000
C1439       C  0.49466353  0.74881852  0.74993011    -0.03000
C1440       C  0.75763691  0.50277128  0.75280157    -0.03000
C1441       C  0.70544007  0.52271135  0.18813717    -0.03600
C1442       C  0.71458274  0.98905988  0.21214695     0.07300
C1443       C  0.68236291  0.96022981  0.21250253    -0.02500
C1444       C  0.64801646  0.96470205  0.18509632    -0.02500
C1445       C  0.63967748  0.99975219  0.16708592     0.07400
C1446       C  0.66802188  0.52817489  0.17267106    -0.02700
Br1447     Br  0.65505911  0.57711672  0.15044407    -0.01200
Br1448     Br  0.74106904  0.56304422  0.16712127    -0.01300
Br1449     Br  0.61157802  0.92186531  0.16951409    -0.01300
Br1450     Br  0.67523135  0.91695014  0.25682349    -0.01300
C1451       C  0.83164121  0.47517978  0.13332842    -0.02400
C1452       C  0.86621124  0.98289772  0.15897251     0.07300
C1453       C  0.86461686  0.99031822  0.21367791    -0.02500
C1454       C  0.82941075  0.98947063  0.24065656    -0.02500
C1455       C  0.79319751  0.98864335  0.21345093     0.07400
C1456       C  0.79719212  0.48332678  0.15754075    -0.02700
Br1457     Br  0.75566089  0.48204565  0.10819514    -0.01200
Br1458     Br  0.82852238  0.44396449  0.06855726    -0.01300
Br1459     Br  0.83458963  0.99731499  0.31553449    -0.01300
Br1460     Br  0.91103863  0.00272069  0.25253666    -0.01300
C1461       C  0.99776838  0.79237793  0.15994448    -0.02400
C1462       C  0.49539692  0.79197003  0.21558605     0.07300
C1463       C  0.49396950  0.82933910  0.24067722    -0.02500
C1464       C  0.49593556  0.86332223  0.21162889    -0.02500
C1465       C  0.50213226  0.86254151  0.15662754     0.07400
C1466       C  0.00640254  0.82661745  0.13371772    -0.02700
Br1467     Br  0.03281592  0.82194770  0.06831142    -0.01200
Br1468     Br  0.98421812  0.74913618  0.11309357    -0.01300
Br1469     Br  0.49604419  0.91161123  0.24983126    -0.01300
Br1470     Br  0.49618180  0.83669251  0.31634924    -0.01300
C1471       C  0.96250192  0.64522660  0.19416110    -0.02400
C1472       C  0.49734066  0.63320212  0.18043175     0.07300
C1473       C  0.52809701  0.65992152  0.18643573    -0.02500
C1474       C  0.52412776  0.69915801  0.19739812    -0.02500
C1475       C  0.49045829  0.71277560  0.21850524     0.07400
C1476       C  0.95865334  0.68271414  0.21641783    -0.02700
Br1477     Br  0.90873568  0.68602362  0.24145955    -0.01200
Br1478     Br  0.92053100  0.60684714  0.18629251    -0.01300
Br1479     Br  0.56549852  0.73406258  0.18044993    -0.01300
Br1480     Br  0.57588021  0.63959481  0.18780812    -0.01300
C1481       C  0.69707068  0.88935625  0.95865168    -0.02400
C1482       C  0.68836903  0.85118584  0.94447110     0.07300
C1483       C  0.65125815  0.83599083  0.93690250    -0.02500
C1484       C  0.62209494  0.85831485  0.94899677    -0.02500
C1485       C  0.63041353  0.89654702  0.96772478     0.07400
C1486       C  0.66839388  0.91184646  0.97224397    -0.02700
Br1487     Br  0.68330810  0.96072281  0.00609809    -0.01200
Br1488     Br  0.74900599  0.90809665  0.97010938    -0.01300
Br1489     Br  0.57192151  0.83341642  0.94377601    -0.01300
Br1490     Br  0.64112420  0.78207003  0.92154518    -0.01300
C1491       C  0.84887498  0.83162789  0.89033393    -0.02400
C1492       C  0.85133524  0.79572152  0.91153933     0.07300
C1493       C  0.87868630  0.79270913  0.95177332    -0.02500
C1494       C  0.89592271  0.82555099  0.97750606    -0.02500
C1495       C  0.88946413  0.86158748  0.96003058     0.07400
C1496       C  0.86454887  0.86446544  0.91738622    -0.02700
Br1497     Br  0.85205925  0.91287643  0.89364171    -0.01200
Br1498     Br  0.82774677  0.83549276  0.82066784    -0.01300
Br1499     Br  0.92642218  0.82103797  0.03971867    -0.01300
Br1500     Br  0.90005535  0.74591858  0.96512412    -0.01300
C1501       C  0.89417120  0.64040357  0.05498943    -0.02400
C1502       C  0.88213130  0.60358392  0.03420720     0.07300
C1503       C  0.84339113  0.59043795  0.03309830    -0.02500
C1504       C  0.81739211  0.61644644  0.04279820    -0.02500
C1505       C  0.83047732  0.65350827  0.05731276     0.07400
C1506       C  0.86761613  0.66415830  0.07031406    -0.02700
Br1507     Br  0.88165153  0.71434686  0.09996743    -0.01200
Br1508     Br  0.94563131  0.66191705  0.05864297    -0.01300
Br1509     Br  0.76464194  0.60370840  0.02831155    -0.01300
Br1510     Br  0.82385494  0.53922787  0.01291376    -0.01300
C1511       C  0.64458007  0.69231040  0.09428261    -0.02400
C1512       C  0.67577103  0.70253738  0.06454384     0.07300
C1513       C  0.68002336  0.68376492  0.01468526    -0.02500
C1514       C  0.65455523  0.65279064  0.99848988    -0.02500
C1515       C  0.62293405  0.64371102  0.02894278     0.07400
C1516       C  0.61549036  0.66799325  0.07161109    -0.02700
Br1517     Br  0.56628558  0.68480581  0.07280506    -0.01200
Br1518     Br  0.64685677  0.70556108  0.16842420    -0.01300
Br1519     Br  0.65886281  0.62724354  0.93083502    -0.01300
Br1520     Br  0.71968520  0.69923179  0.96812502    -0.01300
C1521       C  0.84996980  0.53894977  0.84144441    -0.02400
C1522       C  0.87542870  0.51149395  0.83191475     0.07300
C1523       C  0.86284236  0.98160016  0.79112002    -0.02500
C1524       C  0.82676807  0.97898884  0.76539621    -0.02500
C1525       C  0.80024130  0.50584258  0.78004863     0.07400
C1526       C  0.81443225  0.53758570  0.81450210    -0.02700
Br1527     Br  0.78728610  0.58133778  0.82771440    -0.01200
Br1528     Br  0.86576668  0.58053521  0.89023740    -0.01300
Br1529     Br  0.82753372  0.94605173  0.70232937    -0.01300
Br1530     Br  0.90174485  0.95040863  0.76823832    -0.01300
C1531       C  0.68282577  0.48972190  0.76689924    -0.02400
C1532       C  0.72040165  0.49759172  0.79020125     0.07300
C1533       C  0.71615684  0.00508026  0.84479768    -0.02500
C1534       C  0.68256308  0.01416958  0.87049971    -0.02500
C1535       C  0.64945237  0.50417501  0.84956935     0.07400
C1536       C  0.64891599  0.49180561  0.79614149    -0.02700
Br1537     Br  0.60083557  0.47954875  0.76072736    -0.01200
Br1538     Br  0.67343241  0.47745454  0.69327646    -0.01300
Br1539     Br  0.68976963  0.04467883  0.93535162    -0.01300
Br1540     Br  0.75777246  0.99958658  0.89203560    -0.01300
C1541       C  0.00930059  0.68128879  0.86903516    -0.02400
C1542       C  0.50004508  0.64332417  0.84942563     0.07300
C1543       C  0.48487215  0.64053042  0.79793699    -0.02500
C1544       C  0.48039281  0.67348187  0.76816167    -0.02500
C1545       C  0.49150876  0.71227208  0.78823860     0.07400
C1546       C  0.00165002  0.71454811  0.84191681    -0.02700
Br1547     Br  0.99792354  0.75915409  0.88717289    -0.01200
Br1548     Br  0.03706312  0.68871972  0.93464167    -0.01300
Br1549     Br  0.45443457  0.66059240  0.70214676    -0.01300
Br1550     Br  0.46951897  0.59031956  0.76736456    -0.01300
C1551       C  0.53889087  0.84939704  0.81467558    -0.02400
C1552       C  0.50845503  0.87110654  0.82202255     0.07300
C1553       C  0.97283921  0.85352491  0.80692316    -0.02500
C1554       C  0.96946679  0.81929218  0.77596094    -0.02500
C1555       C  0.49826316  0.79195548  0.77790757     0.07400
C1556       C  0.53348398  0.80981900  0.80011798    -0.02700
Br1557     Br  0.57530650  0.78275448  0.81883971    -0.01200
Br1558     Br  0.58838180  0.87514384  0.82387776    -0.01300
Br1559     Br  0.93041290  0.82288972  0.72333010    -0.01300
Br1560     Br  0.92887008  0.87558003  0.82963338    -0.01300
C1561       C  0.88415676  0.73790798  0.71526340    -0.02400
C1562       C  0.88193142  0.74295366  0.66048857     0.07300
C1563       C  0.91710423  0.74733892  0.63418860    -0.02500
C1564       C  0.95184288  0.74256563  0.65957258    -0.02500
C1565       C  0.95559994  0.74443385  0.71600139     0.07400
C1566       C  0.91970690  0.74020822  0.74282942    -0.02700
Br1567     Br  0.91646863  0.74085273  0.81847190    -0.01200
Br1568     Br  0.83813659  0.72923356  0.75362051    -0.01300
Br1569     Br  0.98884749  0.72302840  0.61268842    -0.01300
Br1570     Br  0.92076781  0.76459262  0.56312753    -0.01300
C1571       C  0.60263649  0.73725263  0.70705178    -0.02400
C1572       C  0.60752159  0.75792350  0.66127688     0.07300
C1573       C  0.57524581  0.77525509  0.64423216    -0.02500
C1574       C  0.54249909  0.77586082  0.67591451    -0.02500
C1575       C  0.53364784  0.74848262  0.71553735     0.07400
C1576       C  0.56592614  0.72721787  0.72744724    -0.02700
Br1577     Br  0.56772066  0.68714036  0.77617611    -0.01200
Br1578     Br  0.64706954  0.72275672  0.74296824    -0.01300
Br1579     Br  0.51094653  0.81545985  0.66060240    -0.01300
Br1580     Br  0.57317429  0.79796364  0.57607199    -0.01300
C1581       C  0.77928983  0.59427800  0.66165708    -0.02400
C1582       C  0.74604019  0.61271313  0.66391238     0.07300
C1583       C  0.71825238  0.59767451  0.69692332    -0.02500
C1584       C  0.72425465  0.56774948  0.73055705    -0.02500
C1585       C  0.75453687  0.54303754  0.72262454     0.07400
C1586       C  0.78356418  0.56014928  0.68909743    -0.02700
Br1587     Br  0.82992690  0.53841340  0.67529544    -0.01200
Br1588     Br  0.81925854  0.61644846  0.61909618    -0.01300
Br1589     Br  0.69800315  0.57665043  0.79558677    -0.01300
Br1590     Br  0.67133538  0.61977501  0.69859266    -0.01300
C1591       C  0.74677781  0.92600504  0.74283671    -0.02400
C1592       C  0.74989100  0.96217908  0.71749245     0.07300
C1593       C  0.74807334  0.95859885  0.66090461    -0.02500
C1594       C  0.74860526  0.92274840  0.63293687    -0.02500
C1595       C  0.74906115  0.88759675  0.65923167     0.07400
C1596       C  0.74457318  0.89016532  0.71430467    -0.02700
Br1597     Br  0.73416244  0.84421436  0.75202381    -0.01200
Br1598     Br  0.74923680  0.92236765  0.81797886    -0.01300
Br1599     Br  0.74692081  0.92423328  0.55661774    -0.01300
Br1600     Br  0.74077131  0.00089431  0.61791926    -0.01300
C1601       C  0.81926196  0.56911510  0.47780595    -0.02400
C1602       C  0.82860945  0.60416359  0.45475241     0.07300
C1603       C  0.86071458  0.60899705  0.42395362    -0.02500
C1604       C  0.88891570  0.58508295  0.42970868    -0.02500
C1605       C  0.88212823  0.55345065  0.46076921     0.07400
C1606       C  0.84666822  0.54387529  0.48152750    -0.02700
Br1607     Br  0.83810362  0.49946748  0.52271421    -0.01200
Br1608     Br  0.77052794  0.55546853  0.50653614    -0.01300
Br1609     Br  0.93799658  0.59982001  0.40294852    -0.01300
Br1610     Br  0.86474500  0.64619396  0.37152763    -0.01300
C1611       C  0.57319638  0.61450008  0.49192261    -0.02400
C1612       C  0.59616491  0.63852465  0.52579409     0.07300
C1613       C  0.58783858  0.64093629  0.57954471    -0.02500
C1614       C  0.55735759  0.61943505  0.59997643    -0.02500
C1615       C  0.53663592  0.59281866  0.56730211     0.07400
C1616       C  0.54366679  0.59133214  0.51246894    -0.02700
Br1617     Br  0.51507791  0.55666794  0.46470174    -0.01200
Br1618     Br  0.58316677  0.61151183  0.41831891    -0.01300
Br1619     Br  0.54532789  0.62382715  0.67332498    -0.01300
Br1620     Br  0.62127838  0.66977806  0.62618225    -0.01300
C1621       C  0.63947441  0.88642605  0.57312812    -0.02400
C1622       C  0.65508083  0.88286406  0.52283548     0.07300
C1623       C  0.65739377  0.91358754  0.48947141    -0.02500
C1624       C  0.63954903  0.94551548  0.50414332    -0.02500
C1625       C  0.61454679  0.94312903  0.54601811     0.07400
C1626       C  0.61643589  0.91525335  0.58321376    -0.02700
Br1627     Br  0.58277308  0.91220446  0.64178768    -0.01200
Br1628     Br  0.65089730  0.85380764  0.62860557    -0.01300
Br1629     Br  0.64328407  0.98982717  0.46262304    -0.01300
Br1630     Br  0.68133134  0.91086182  0.42218815    -0.01300
C1631       C  0.93889015  0.89292745  0.49769651    -0.02400
C1632       C  0.94428236  0.89898579  0.44291705     0.07300
C1633       C  0.91869744  0.88102719  0.40560150    -0.02500
C1634       C  0.88836145  0.85774173  0.42231161    -0.02500
C1635       C  0.88416594  0.85070018  0.47586401     0.07400
C1636       C  0.90872617  0.86859073  0.51375307    -0.02700
Br1637     Br  0.89823973  0.86267571  0.58759117    -0.01200
Br1638     Br  0.96965321  0.91952705  0.55265394    -0.01300
Br1639     Br  0.85027762  0.83911201  0.37173620    -0.01300
Br1640     Br  0.92256757  0.88922615  0.33146181    -0.01300
C1641       C  0.58504670  0.72145072  0.32223083    -0.02400
C1642       C  0.61010075  0.75372151  0.32970792     0.07300
C1643       C  0.59776899  0.78772612  0.31391943    -0.02500
C1644       C  0.56468377  0.78784185  0.28237587    -0.02500
C1645       C  0.53411480  0.75697760  0.28344852     0.07400
C1646       C  0.54673586  0.72363843  0.30735515    -0.02700
Br1647     Br  0.51382431  0.67909525  0.32170577    -0.01200
Br1648     Br  0.60565807  0.67378021  0.32752352    -0.01300
Br1649     Br  0.57559742  0.82379585  0.22753872    -0.01300
Br1650     Br  0.62928712  0.83388502  0.33027312    -0.01300
C1651       C  0.91956977  0.76794745  0.26395121    -0.02400
C1652       C  0.95493794  0.75726767  0.28583274     0.07300
C1653       C  0.95267939  0.74890396  0.34046652    -0.02500
C1654       C  0.91761554  0.73976006  0.36505415    -0.02500
C1655       C  0.88236514  0.74703763  0.34136420     0.07400
C1656       C  0.88476282  0.76358386  0.29172983    -0.02700
Br1657     Br  0.83931896  0.77792821  0.25864731    -0.01200
Br1658     Br  0.91351531  0.78377586  0.19268961    -0.01300
Br1659     Br  0.92109802  0.71550190  0.43214738    -0.01300
Br1660     Br  0.99486422  0.75862342  0.38926458    -0.01300
C1661       C  0.76791054  0.91554145  0.36164386    -0.02400
C1662       C  0.76001820  0.87911952  0.33626751     0.07300
C1663       C  0.75529643  0.87916291  0.28116963    -0.02500
C1664       C  0.75664622  0.91398592  0.25372115    -0.02500
C1665       C  0.75549886  0.95119653  0.28054472     0.07400
C1666       C  0.76040747  0.94977757  0.33721586    -0.02700
Br1667     Br  0.76039095  0.99254078  0.38764565    -0.01200
Br1668     Br  0.79638494  0.92043190  0.42759421    -0.01300
Br1669     Br  0.75236033  0.90617462  0.17837383    -0.01300
Br1670     Br  0.74645002  0.83108559  0.24197607    -0.01300
C1671       C  0.77842240  0.56591940  0.27516453    -0.02400
C1672       C  0.75391361  0.53078463  0.28149995     0.07300
C1673       C  0.72072595  0.53712203  0.31181151    -0.02500
C1674       C  0.71351967  0.57314540  0.33428054    -0.02500
C1675       C  0.73851292  0.60550676  0.32986480     0.07400
C1676       C  0.76955131  0.60196652  0.29743310    -0.02700
Br1677     Br  0.79690958  0.64878287  0.27734989    -0.01200
Br1678     Br  0.82199501  0.57227882  0.23013883    -0.01300
Br1679     Br  0.66574799  0.57992216  0.36621497    -0.01300
Br1680     Br  0.68295957  0.49707697  0.32710182    -0.01300
loop_ 
_geom_bond_atom_site_label_1 
_geom_bond_atom_site_label_2 
_geom_bond_distance 
_geom_bond_site_symmetry_2 
_ccdc_geom_bond_type 
O1          Zr37   2.539       .  S
O1           C12   1.313       .  A
O2          Zr36   2.570       .  S
O2           C13   1.320       .  A
O3           Zr9   2.346       .  S
O3           C14   1.271       .  A
O4           Zr9   2.422       .  S
O4           C15   1.286       .  A
O5          Zr39   2.425       .  S
O5           C15   1.287       .  A
O6          Zr38   2.435       .  S
O6           C14   1.292       .  A
O7           Zr9   2.457       .  S
O7           C13   1.294       .  A
O8           Zr9   2.447       .  S
O8           C12   1.294       .  A
Zr9          O10   2.333       .  S
Zr9          O11   2.338       .  S
Zr9          O19   2.343       .  S
Zr9          O17   2.355       .  S
O10         Zr36   2.390       .  S
O10         Zr39   2.352       .  S
O11         Zr37   2.365       .  S
O11         Zr38   2.323       .  S
C12         C415   1.542       .  S
C13         C322   1.531       .  S
C14         C342   1.455       .  S
C15         C352   1.465       .  S
H16          O17   0.964       .  S
O17         Zr36   2.376       .  S
O17         Zr38   2.315       .  S
H18          O19   0.966       .  S
O19         Zr37   2.402       .  S
O19         Zr39   2.351       .  S
O20         Zr36   2.572       .  S
O20          C43   1.319       .  A
O21         Zr37   2.573       .  S
O21          C44   1.318       .  A
O22         Zr38   2.418       .  S
O22          C45   1.286       .  A
O23         Zr39   2.406       .  S
O23          C46   1.284       .  A
O24         Zr39   2.420       .  S
O24          C47   1.288       .  A
O25         Zr38   2.380       .  S
O25          C48   1.274       .  A
O26         Zr40   2.381       .  S
O26          C49   1.278       .  A
O27         Zr40   2.341       .  S
O27          C50   1.269       .  A
O28         Zr38   2.414       .  S
O28          C49   1.284       .  A
O29         Zr39   2.456       .  S
O29          C50   1.293       .  A
O30         Zr36   2.596       .  S
O30          C45   1.325       .  A
O31         Zr37   2.590       .  S
O31          C48   1.323       .  A
O32         Zr37   2.558       .  S
O32          C47   1.318       .  A
O33         Zr36   2.583       .  S
O33          C46   1.324       .  A
O34         Zr40   2.401       .  S
O34          C43   1.277       .  A
O35         Zr40   2.429       .  S
O35          C44   1.286       .  A
Zr36         O42   2.371       .  S
Zr36         O54   2.363       .  S
Zr37         O41   2.374       .  S
Zr37         O52   2.342       .  S
Zr38         O42   2.338       .  S
Zr38         O52   2.332       .  S
Zr39         O41   2.342       .  S
Zr39         O54   2.328       .  S
Zr40         O41   2.336       .  S
Zr40         O42   2.339       .  S
Zr40         O54   2.321       .  S
Zr40         O52   2.292       .  S
C43         C335   1.559       .  S
C44         C402   1.567       .  S
C45         C302   1.560       .  S
C46         C312   1.548       .  S
C47         C382   1.517       .  S
C48         C395   1.554       .  S
C49         C375   1.437       .  S
C50         C362   1.441       .  S
H51          O52   0.957       .  S
H53          O54   0.963       .  S
N55          C60   1.347       .  A
N55         C899   1.337       .  A
N55          H87   1.037       .  S
N56          C64   1.346       .  A
N56         C483   1.344   1_545  A
N57          C62   1.349       .  A
N57         C901   1.345       .  A
N57          H88   1.037       .  S
N58          C66   1.336   1_565  A
N58         C485   1.342       .  A
C59         N895   1.336       .  A
C59          C67   1.391       .  A
C59          C75   1.402       .  A
C60          C76   1.392       .  A
C60          C68   1.384       .  A
C61         N897   1.344       .  A
C61          C69   1.380       .  A
C61          C78   1.392   1_655  A
C62          C77   1.411       .  A
C62          C70   1.391       .  A
C63         N476   1.344       .  A
C63          C75   1.395       .  A
C63          C71   1.379       .  A
C64          C78   1.395       .  A
C64          C72   1.389       .  A
C65         N478   1.337       .  A
C65          C73   1.375       .  A
C65          C76   1.380       .  A
C66          C74   1.383       .  A
C66          C77   1.397       .  A
C67         C908   1.374       .  A
C67          H79   1.082       .  S
C68         C907   1.375       .  A
C68          H80   1.082       .  S
C69         C910   1.366       .  A
C69          H81   1.079       .  S
C70         C909   1.367       .  A
C70          H82   1.082       .  S
C71         C492   1.362       .  A
C71          H83   1.082       .  S
C72         C491   1.362       .  A
C72          H84   1.079       .  S
C73         C494   1.375       .  A
C73          H85   1.081       .  S
C74         C493   1.365   1_545  A
C74          H86   1.077       .  S
C75         C365   1.450       .  S
C76         C372   1.475       .  S
C77         C345   1.455       .  S
C78         C355   1.475       .  S
O89        Zr545   2.555       .  S
O89         C100   1.318       .  A
O90        Zr124   2.534       .  S
O90         C101   1.311       .  A
O91         Zr97   2.390       .  S
O91         C102   1.278       .  A
O92        Zr937   2.417       .  S
O92         C103   1.287       .  A
O93        Zr547   2.413       .  S
O93         C103   1.283       .  A
O94        Zr546   2.405   1_556  S
O94         C102   1.281       .  A
O95         Zr97   2.446   1_554  S
O95         C101   1.291       .  A
O96         Zr97   2.414       .  S
O96         C100   1.286       .  A
Zr97        O932   2.415   1_455  S
Zr97         O99   2.335       .  S
Zr97        O105   2.338   1_556  S
Zr97        O938   2.325   1_456  S
Zr97        O947   2.348   1_455  S
O98        Zr937   2.326   1_554  S
O98        Zr964   2.380       .  S
O98        Zr547   2.330   1_554  S
O99        Zr545   2.347       .  S
O99        Zr546   2.320   1_556  S
C100        C292   1.512       .  S
C101        C205   1.556       .  S
C102        C225   1.470       .  S
C103        C235   1.471       .  S
H104        O105   0.965       .  S
O105       Zr124   2.368       .  S
O105       Zr546   2.355       .  S
H106        O107   0.965       .  S
O107       Zr937   2.347       .  S
O107      Zr1385   2.390       .  S
O107       Zr547   2.331       .  S
O108       Zr544   2.577   1_545  S
O108        C131   1.321       .  A
O109       Zr125   2.577       .  S
O109        C132   1.322       .  A
O110       Zr546   2.403       .  S
O110        C133   1.285       .  A
O111       Zr547   2.409   1_554  S
O111        C134   1.283       .  A
O112       Zr127   2.434   1_545  S
O112        C135   1.290       .  A
O113       Zr126   2.392   1_556  S
O113        C136   1.279       .  A
O114       Zr128   2.392       .  S
O114        C137   1.279       .  A
O115       Zr968   2.385       .  S
O115        C138   1.276       .  A
O116       Zr126   2.460       .  S
O116        C137   1.293       .  A
O117       Zr127   2.336   1_544  S
O117        C138   1.267       .  A
O118       Zr124   2.559       .  S
O118        C133   1.318       .  A
O119       Zr125   2.578       .  S
O119        C136   1.321       .  A
O120       Zr965   2.561       .  S
O120        C135   1.319       .  A
O121       Zr964   2.569       .  S
O121        C134   1.318       .  A
O122       Zr128   2.433       .  S
O122        C131   1.288       .  A
O123       Zr128   2.418   1_656  S
O123        C132   1.286   1_655  A
Zr124       O528   2.562       .  S
Zr124       O961   2.569   1_455  S
Zr124       O938   2.378   1_455  S
Zr124       O550   2.385       .  S
Zr124      O1402   2.348   1_455  S
Zr125       O509   2.563   1_545  S
Zr125       O960   2.561   1_455  S
Zr125       O140   2.372       .  S
Zr125       O519   2.354   1_545  S
Zr125      O1367   2.390   1_445  S
Zr125       O969   2.356   1_455  S
Zr126       O514   2.399   1_544  S
Zr126       O530   2.401       .  S
Zr126       O130   2.330       .  S
Zr126       O140   2.332   1_554  S
Zr126       O519   2.326   1_544  S
Zr126       O525   2.353   1_545  S
Zr127       O513   2.429       .  S
Zr127       O531   2.413   1_556  S
Zr127       O129   2.342   1_565  S
Zr127       O142   2.350   1_566  S
Zr127       O518   2.329   1_556  S
Zr127       O527   2.324       .  S
Zr128       O955   2.387   1_455  S
Zr128       O130   2.337       .  S
Zr128       O140   2.334   1_554  S
Zr128       O969   2.330   1_454  S
Zr128       O982   2.336   1_455  S
O129       Zr965   2.356       .  S
O129       Zr968   2.325   1_556  S
O130       Zr544   2.380   1_545  S
C131        C212   1.536   1_455  S
C132        C282   1.549   1_455  S
C133        C185   1.514       .  S
C134        C192   1.555       .  S
C135        C262   1.534       .  S
C136        C275   1.552       .  S
C137        C255   1.477       .  S
C138        C242   1.434       .  S
H139        O140   0.966       .  S
H141        O142   0.964       .  S
O142      Zr1384   2.345   1_545  S
O142       Zr968   2.333       .  S
N143        C148   1.338       .  A
N143        C147   1.327       .  A
N143        H175   1.032       .  S
N144        C151   1.336       .  A
N144        C152   1.347       .  A
N145        C150   1.340       .  A
N145        C149   1.345       .  A
N145        H176   1.045       .  S
N146        C153   1.339       .  A
N146        C154   1.330       .  A
C147        C155   1.390       .  A
C147        C163   1.388       .  A
C148        C164   1.379       .  A
C148        C156   1.383       .  A
C149        C157   1.379       .  A
C149        C166   1.394       .  A
C150        C165   1.396       .  A
C150        C158   1.387       .  A
C151        C163   1.413   1_556  A
C151        C159   1.395       .  A
C152        C166   1.387       .  A
C152        C160   1.377       .  A
C153        C161   1.374       .  A
C153        C164   1.381       .  A
C154        C162   1.398       .  A
C154        C165   1.407   1_554  A
C155        C156   1.363       .  A
C155        H167   1.082       .  S
C156        H168   1.080       .  S
C157        C158   1.380       .  A
C157        H169   1.082       .  S
C158        H170   1.082       .  S
C159        C160   1.377       .  A
C159        H171   1.080       .  S
C160        H172   1.081       .  S
C161        C162   1.372       .  A
C161        H173   1.083       .  S
C162        H174   1.080       .  S
C163        C245   1.420       .  S
C164        C252   1.478       .  S
C165        C222   1.449       .  S
C166        C232   1.511       .  S
C177        C202   1.628       .  S
C177        C215   1.666       .  S
C177        C385   1.661   1_655  S
C177       C1232   1.636       .  S
C178        C412   1.661   1_565  S
C178        C602   1.661       .  S
C178        C615   1.648       .  S
C178        C825   1.654       .  S
C179        C285   1.645       .  S
C179        C295   1.648   1_655  S
C179        C315   1.655   1_655  S
C179       C1145   1.638       .  S
C180        C265   1.666       .  S
C180        C272   1.648   1_545  S
C180        C325   1.657       .  S
C180        C752   1.632   1_545  S
C181        C186   1.428       .  A
C181        C602   1.461   1_545  A
C181       Br188   1.930       .  S
C182        C183   1.477       .  A
C182        C601   1.465       .  A
C182        C598   1.664       .  S
C183        C184   1.434       .  A
C183       Br190   1.943       .  S
C184        C185   1.400       .  A
C184       Br189   1.941       .  S
C185        C606   1.400       .  A
C186        C605   1.403       .  A
C186       Br187   1.944       .  S
C191        C196   1.433       .  A
C191        C612   1.425       .  A
C191       Br198   1.945       .  S
C192        C193   1.408       .  A
C192        C611   1.426       .  A
C193        C194   1.441       .  A
C193       Br200   1.933       .  S
C194        C195   1.465       .  A
C194       Br199   1.926       .  S
C195        C616   1.446       .  A
C195        C598   1.645       .  S
C196        C615   1.449       .  A
C196       Br197   1.940       .  S
C201        C206   1.423       .  A
C201       C1042   1.436       .  A
C201       Br208   1.935       .  S
C202        C203   1.455       .  A
C202       C1041   1.438       .  A
C203        C204   1.440       .  A
C203       Br210   1.928       .  S
C204        C205   1.420   1_655  A
C204       Br209   1.939       .  S
C205       C1046   1.430       .  A
C206       C1045   1.429       .  A
C206       Br207   1.933       .  S
C211        C216   1.445       .  A
C211       C1052   1.403       .  A
C211       Br218   1.941       .  S
C212        C213   1.400   1_655  A
C212       C1051   1.401       .  A
C213        C214   1.435       .  A
C213       Br220   1.919       .  S
C214        C215   1.443   1_455  A
C214       Br219   1.916       .  S
C215       C1056   1.476       .  A
C216       C1055   1.475       .  A
C216       Br217   1.921       .  S
C221        C222   1.395       .  A
C221        C226   1.392       .  A
C221       Br228   1.937       .  S
C222        C223   1.403       .  A
C223        C224   1.397       .  A
C223       Br230   1.942       .  S
C224        C225   1.423       .  A
C224       Br229   1.934       .  S
C225        C226   1.419       .  A
C226       Br227   1.933   1_556  S
C231        C232   1.415       .  A
C231        C236   1.400       .  A
C231       Br238   1.932       .  S
C232        C233   1.425       .  A
C233        C234   1.403       .  A
C233       Br240   1.930       .  S
C234        C235   1.406       .  A
C234       Br239   1.936   1_556  S
C235        C236   1.409       .  A
C236       Br237   1.932       .  S
C241        C242   1.420       .  A
C241        C246   1.374       .  A
C241       Br248   1.935       .  S
C242        C243   1.424       .  A
C243        C244   1.383       .  A
C243       Br250   1.941       .  S
C244        C245   1.391       .  A
C244       Br249   1.933       .  S
C245        C246   1.386       .  A
C246       Br247   1.934       .  S
C251        C252   1.387       .  A
C251        C256   1.397       .  A
C251       Br258   1.924       .  S
C252        C253   1.423       .  A
C253        C254   1.412   1_554  A
C253       Br260   1.924   1_554  S
C254        C255   1.402   1_556  A
C254       Br259   1.926       .  S
C255        C256   1.403       .  A
C256       Br257   1.912       .  S
C261        C262   1.408       .  A
C261        C266   1.439       .  A
C261       Br268   1.932       .  S
C262        C683   1.394   1_545  A
C263        C264   1.434       .  A
C263        C682   1.391       .  A
C263       Br270   1.940       .  S
C264        C685   1.483       .  A
C264       Br269   1.949       .  S
C265        C266   1.453       .  A
C265        C684   1.482   1_545  A
C266       Br267   1.925       .  S
C271        C272   1.470       .  A
C271        C276   1.438       .  A
C271       Br278   1.924       .  S
C272        C693   1.440   1_565  A
C273        C274   1.438       .  A
C273        C692   1.444       .  A
C273       Br280   1.939       .  S
C274        C695   1.441       .  A
C274       Br279   1.944       .  S
C275        C276   1.407   1_545  A
C275        C694   1.434       .  A
C276       Br277   1.944       .  S
C281        C286   1.436       .  A
C281       C1122   1.430       .  A
C281       Br288   1.931       .  S
C282        C283   1.405       .  A
C282       C1121   1.431   1_655  A
C283        C284   1.436       .  A
C283       Br290   1.945       .  S
C284        C285   1.466       .  A
C284       Br289   1.920       .  S
C285       C1126   1.445   1_655  A
C286       C1125   1.445       .  A
C286       Br287   1.938       .  S
C291        C292   1.401       .  A
C291        C296   1.432       .  A
C291       Br298   1.932       .  S
C292       C1133   1.393   1_455  A
C293        C294   1.414       .  A
C293       C1132   1.392       .  A
C293       Br300   1.910       .  S
C294       C1135   1.465       .  A
C294       Br299   1.944       .  S
C295        C296   1.461       .  A
C295       C1134   1.465   1_455  A
C296       Br297   1.920       .  S
C301        C302   1.414       .  A
C301        C306   1.444       .  A
C301       Br308   1.933       .  S
C302        C303   1.434       .  A
C303        C304   1.428       .  A
C303       Br310   1.932       .  S
C304        C305   1.441       .  A
C304       Br309   1.947       .  S
C305        C306   1.462       .  A
C305       C1019   1.637       .  S
C306       Br307   1.928       .  S
C311        C312   1.405       .  A
C311        C316   1.441       .  A
C311       Br318   1.950       .  S
C312        C313   1.427       .  A
C313        C314   1.431       .  A
C313       Br320   1.943       .  S
C314        C315   1.449       .  A
C314       Br319   1.935       .  S
C315        C316   1.473       .  A
C316       Br317   1.932       .  S
C321        C322   1.416       .  A
C321        C326   1.446       .  A
C321       Br328   1.934       .  S
C322        C323   1.397       .  A
C323        C324   1.408       .  A
C323       Br330   1.910       .  S
C324        C325   1.454       .  A
C324       Br329   1.933       .  S
C325        C326   1.460       .  A
C326       Br327   1.923       .  S
C331        C332   1.458       .  A
C331        C336   1.433       .  A
C331       Br338   1.921       .  S
C332        C333   1.443       .  A
C332        C600   1.631       .  S
C333        C334   1.437       .  A
C333       Br340   1.939       .  S
C334        C335   1.445       .  A
C334       Br339   1.946       .  S
C335        C336   1.410       .  A
C336       Br337   1.935       .  S
C341        C342   1.410       .  A
C341        C346   1.394       .  A
C341       Br348   1.922       .  S
C342        C343   1.398       .  A
C343        C344   1.387       .  A
C343       Br350   1.921       .  S
C344        C345   1.409       .  A
C344       Br349   1.929       .  S
C345        C346   1.402       .  A
C346       Br347   1.932   1_545  S
C351        C352   1.397       .  A
C351        C356   1.399       .  A
C351       Br358   1.907       .  S
C352        C353   1.403       .  A
C353        C354   1.394       .  A
C353       Br360   1.889       .  S
C354        C355   1.391       .  A
C354       Br359   1.919       .  S
C355        C356   1.415       .  A
C356       Br357   1.921       .  S
C361        C362   1.404       .  A
C361        C366   1.390       .  A
C361       Br368   1.927       .  S
C362        C363   1.405       .  A
C363        C364   1.391       .  A
C363       Br370   1.923       .  S
C364        C365   1.403       .  A
C364       Br369   1.929       .  S
C365        C366   1.404       .  A
C366       Br367   1.930       .  S
C371        C372   1.430       .  A
C371        C376   1.397       .  A
C371       Br378   1.934       .  S
C372        C373   1.408       .  A
C373        C374   1.390       .  A
C373       Br380   1.931       .  S
C374        C375   1.403       .  A
C374       Br379   1.924       .  S
C375        C376   1.393       .  A
C376       Br377   1.938       .  S
C381        C382   1.400       .  A
C381        C386   1.429       .  A
C381       Br388   1.912       .  S
C382        C383   1.394       .  A
C383        C384   1.429       .  A
C383       Br390   1.942       .  S
C384        C385   1.482       .  A
C384       Br389   1.944       .  S
C385        C386   1.455       .  A
C386       Br387   1.939       .  S
C391        C392   1.467       .  A
C391        C396   1.440       .  A
C391       Br398   1.933       .  S
C392        C393   1.434       .  A
C392       C1017   1.634       .  S
C393        C394   1.426       .  A
C393       Br400   1.950       .  S
C394        C395   1.445       .  A
C394       Br399   1.949       .  S
C395        C396   1.415       .  A
C396       Br397   1.944       .  S
C401        C402   1.427       .  A
C401        C406   1.435       .  A
C401       Br408   1.942       .  S
C402        C403   1.412       .  A
C403        C404   1.447       .  A
C403       Br410   1.938       .  S
C404        C405   1.466       .  A
C404       Br409   1.930       .  S
C405        C406   1.451       .  A
C405        C598   1.655       .  S
C406       Br407   1.944       .  S
C411        C412   1.477       .  A
C411        C416   1.445       .  A
C411       Br418   1.950       .  S
C412        C413   1.454       .  A
C413        C414   1.430       .  A
C413       Br420   1.933   1_545  S
C414        C415   1.409       .  A
C414       Br419   1.934       .  S
C415        C416   1.408       .  A
C416       Br417   1.945       .  S
O421       Zr457   2.523       .  S
O421        C432   1.311       .  A
O422       Zr456   2.558       .  S
O422        C433   1.318       .  A
O423       Zr429   2.372       .  S
O423        C434   1.275       .  A
O424       Zr429   2.443       .  S
O424        C435   1.291       .  A
O425       Zr459   2.418       .  S
O425        C435   1.285       .  A
O426       Zr458   2.446       .  S
O426        C434   1.293       .  A
O427       Zr429   2.468       .  S
O427        C433   1.297       .  A
O428       Zr429   2.440       .  S
O428        C432   1.294       .  A
Zr429       O430   2.333       .  S
Zr429       O431   2.338       .  S
Zr429       O439   2.350       .  S
Zr429       O437   2.356       .  S
O430       Zr456   2.390       .  S
O430       Zr459   2.349       .  S
O431       Zr457   2.357       .  S
O431       Zr458   2.317       .  S
C432        C835   1.527       .  S
C433        C742   1.531       .  S
C434        C762   1.466       .  S
C435        C772   1.471       .  S
H436        O437   0.964       .  S
O437       Zr456   2.385       .  S
O437       Zr458   2.320       .  S
H438        O439   0.966       .  S
O439       Zr457   2.408       .  S
O439       Zr459   2.347       .  S
O440       Zr456   2.579       .  S
O440        C463   1.320       .  A
O441       Zr457   2.554       .  S
O441        C464   1.314       .  A
O442       Zr458   2.414       .  S
O442        C465   1.285       .  A
O443       Zr459   2.403       .  S
O443        C466   1.282       .  A
O444       Zr459   2.416       .  S
O444        C467   1.287       .  A
O445       Zr458   2.379       .  S
O445        C468   1.275       .  A
O446       Zr460   2.385       .  S
O446        C469   1.279       .  A
O447       Zr460   2.352       .  S
O447        C470   1.271       .  A
O448       Zr458   2.414       .  S
O448        C469   1.283       .  A
O449       Zr459   2.432       .  S
O449        C470   1.288       .  A
O450       Zr456   2.590       .  S
O450        C465   1.323       .  A
O451       Zr457   2.609       .  S
O451        C468   1.327       .  A
O452       Zr457   2.563       .  S
O452        C467   1.318       .  A
O453       Zr456   2.591       .  S
O453        C466   1.325       .  A
O454       Zr460   2.405       .  S
O454        C463   1.279       .  A
O455       Zr460   2.419       .  S
O455        C464   1.284       .  A
Zr456       O462   2.372       .  S
Zr456       O474   2.354       .  S
Zr457       O461   2.371       .  S
Zr457       O472   2.339       .  S
Zr458       O462   2.345       .  S
Zr458       O472   2.331       .  S
Zr459       O461   2.343       .  S
Zr459       O474   2.329       .  S
Zr460       O461   2.336       .  S
Zr460       O462   2.337       .  S
Zr460       O474   2.317       .  S
Zr460       O472   2.298       .  S
C463        C755   1.559       .  S
C464        C822   1.554       .  S
C465        C722   1.555       .  S
C466        C732   1.554       .  S
C467        C802   1.518       .  S
C468        C815   1.558       .  S
C469        C795   1.438       .  S
C470        C782   1.438       .  S
H471        O472   0.970       .  S
H473        O474   0.963       .  S
N475        C480   1.346       .  A
N475       C1319   1.338       .  A
N475        H507   1.037       .  S
N476        C484   1.347       .  A
N477        C482   1.349       .  A
N477       C1321   1.344       .  A
N477        H508   1.035       .  S
N478        C486   1.333       .  A
C479       N1315   1.338       .  A
C479        C487   1.392       .  A
C479        C495   1.405       .  A
C480        C496   1.392       .  A
C480        C488   1.383       .  A
C481       N1317   1.345       .  A
C481        C489   1.382       .  A
C481        C498   1.395   1_655  A
C482        C497   1.415       .  A
C482        C490   1.391       .  A
C483        C495   1.393       .  A
C483        C491   1.379   1_565  A
C484        C498   1.398       .  A
C484        C492   1.389       .  A
C485        C493   1.376       .  A
C485        C496   1.384       .  A
C486        C494   1.387       .  A
C486        C497   1.394       .  A
C487       C1328   1.372       .  A
C487        H499   1.081       .  S
C488       C1327   1.373       .  A
C488        H500   1.082       .  S
C489       C1330   1.369       .  A
C489        H501   1.081       .  S
C490       C1329   1.370       .  A
C490        H502   1.082       .  S
C491        H503   1.080       .  S
C492        H504   1.079       .  S
C493        H505   1.076       .  S
C494        H506   1.080       .  S
C495        C785   1.449       .  S
C496        C792   1.477       .  S
C497        C765   1.455       .  S
C498        C775   1.478       .  S
O509        C520   1.319       .  A
O510       Zr544   2.532       .  S
O510        C521   1.310       .  A
O511       Zr517   2.389       .  S
O511        C522   1.278       .  A
O512      Zr1357   2.416       .  S
O512        C523   1.286       .  A
O513        C523   1.286       .  A
O514        C522   1.279       .  A
O515       Zr517   2.447   1_554  S
O515        C521   1.291       .  A
O516       Zr517   2.421       .  S
O516        C520   1.288       .  A
Zr517      O1352   2.415   1_455  S
Zr517      O1358   2.324   1_456  S
Zr517       O519   2.341       .  S
Zr517      O1367   2.345   1_455  S
Zr517       O525   2.343   1_556  S
O518      Zr1357   2.328   1_554  S
O518      Zr1384   2.390       .  S
C520        C712   1.518       .  S
C521        C625   1.553       .  S
C522        C645   1.474       .  S
C523        C655   1.479       .  S
H524        O525   0.965       .  S
O525       Zr544   2.373       .  S
H526        O527   0.965       .  S
O527      Zr1357   2.342       .  S
O527       Zr965   2.385   1_565  S
O528        C551   1.318       .  A
O529       Zr545   2.569       .  S
O529        C552   1.320       .  A
O530        C553   1.285       .  A
O531        C554   1.284       .  A
O532       Zr547   2.421       .  S
O532        C555   1.287       .  A
O533       Zr546   2.388   1_556  S
O533        C556   1.278       .  A
O534       Zr548   2.395       .  S
O534        C557   1.280       .  A
O535      Zr1388   2.398       .  S
O535        C558   1.279       .  A
O536       Zr546   2.457       .  S
O536        C557   1.293       .  A
O537       Zr547   2.344   1_554  S
O537        C558   1.268       .  A
O538       Zr544   2.568   1_545  S
O538        C553   1.319       .  A
O539       Zr545   2.584       .  S
O539        C556   1.322       .  A
O540      Zr1385   2.565       .  S
O540        C555   1.320       .  A
O541      Zr1384   2.568       .  S
O541        C554   1.318       .  A
O542       Zr548   2.426       .  S
O542        C551   1.288       .  A
O543       Zr548   2.427   1_656  S
O543        C552   1.287   1_655  A
Zr544      O1381   2.577   1_455  S
Zr544      O1358   2.386   1_455  S
Zr544       O982   2.348   1_465  S
Zr545      O1380   2.563   1_455  S
Zr545       O947   2.390   1_455  S
Zr545      O1389   2.355   1_455  S
Zr545       O560   2.366       .  S
Zr546       O550   2.330       .  S
Zr546       O560   2.333   1_554  S
Zr547       O549   2.339       .  S
Zr547       O562   2.338   1_556  S
Zr548      O1375   2.395   1_455  S
Zr548      O1389   2.321   1_454  S
Zr548       O550   2.342       .  S
Zr548      O1402   2.338   1_455  S
Zr548       O560   2.332   1_554  S
O549      Zr1385   2.357       .  S
O549      Zr1388   2.321   1_556  S
C551        C632   1.526   1_455  S
C552        C702   1.551       .  S
C553        C605   1.518       .  S
C554        C612   1.554       .  S
C555        C682   1.529       .  S
C556        C695   1.559       .  S
C557        C675   1.478       .  S
C558        C662   1.447       .  S
H559        O560   0.966       .  S
H561        O562   0.964       .  S
O562       Zr964   2.347       .  S
O562      Zr1388   2.337       .  S
N563        C568   1.341       .  A
N563        C567   1.329       .  A
N563        H595   1.035       .  S
N564        C571   1.337       .  A
N564        C572   1.349       .  A
N565        C570   1.337       .  A
N565        C569   1.342       .  A
N565        H596   1.046       .  S
N566        C573   1.337       .  A
N566        C574   1.331       .  A
C567        C575   1.389       .  A
C567        C583   1.390       .  A
C568        C584   1.382       .  A
C568        C576   1.383       .  A
C569        C577   1.381       .  A
C569        C586   1.392       .  A
C570        C585   1.392       .  A
C570        C578   1.387       .  A
C571        C583   1.413   1_556  A
C571        C579   1.395       .  A
C572        C586   1.386       .  A
C572        C580   1.376       .  A
C573        C581   1.375       .  A
C573        C584   1.380       .  A
C574        C582   1.397       .  A
C574        C585   1.402   1_554  A
C575        C576   1.364       .  A
C575        H587   1.082       .  S
C576        H588   1.080       .  S
C577        C578   1.382       .  A
C577        H589   1.082       .  S
C578        H590   1.081       .  S
C579        C580   1.375       .  A
C579        H591   1.079       .  S
C580        H592   1.081       .  S
C581        C582   1.374       .  A
C581        H593   1.083       .  S
C582        H594   1.081       .  S
C583        C665   1.425       .  S
C584        C672   1.484       .  S
C585        C642   1.444       .  S
C586        C652   1.515       .  S
C597        C622   1.622       .  S
C597        C635   1.662       .  S
C597        C805   1.666   1_655  S
C597       C1652   1.638       .  S
C598        C832   1.654       .  S
C599        C705   1.650       .  S
C599        C715   1.656       .  S
C599       C1565   1.632       .  S
C599        C735   1.657   1_655  S
C600        C685   1.666       .  S
C600        C692   1.650       .  S
C600        C745   1.663       .  S
C601        C606   1.427       .  A
C601       Br608   1.933       .  S
C602        C603   1.477       .  A
C603        C604   1.436       .  A
C603       Br610   1.945       .  S
C604        C605   1.401   1_565  A
C604       Br609   1.942       .  S
C606       Br607   1.943       .  S
C611        C616   1.432       .  A
C611       Br618   1.945       .  S
C612        C613   1.408       .  A
C613        C614   1.441       .  A
C613       Br620   1.936   1_565  S
C614        C615   1.463       .  A
C614       Br619   1.917   1_565  S
C616       Br617   1.934       .  S
C621       C1462   1.436       .  A
C621        C626   1.423       .  A
C621       Br628   1.929       .  S
C622       C1461   1.437       .  A
C622        C623   1.455       .  A
C623        C624   1.440       .  A
C623       Br630   1.931       .  S
C624        C625   1.420   1_655  A
C624       Br629   1.936       .  S
C625       C1466   1.427       .  A
C626       C1465   1.427       .  A
C626       Br627   1.932       .  S
C631       C1472   1.398       .  A
C631        C636   1.445       .  A
C631       Br638   1.945       .  S
C632       C1471   1.399       .  A
C632        C633   1.395   1_655  A
C633        C634   1.430       .  A
C633       Br640   1.919       .  S
C634        C635   1.440   1_455  A
C634       Br639   1.912       .  S
C635       C1476   1.477       .  A
C636       C1475   1.478       .  A
C636       Br637   1.917       .  S
C641        C642   1.395       .  A
C641        C646   1.393       .  A
C641       Br648   1.940       .  S
C642        C643   1.401       .  A
C643        C644   1.395       .  A
C643       Br650   1.943       .  S
C644        C645   1.426       .  A
C644       Br649   1.937       .  S
C645        C646   1.426       .  A
C646       Br647   1.939   1_556  S
C651        C652   1.416       .  A
C651        C656   1.401       .  A
C651       Br658   1.935       .  S
C652        C653   1.426       .  A
C653        C654   1.406       .  A
C653       Br660   1.932       .  S
C654        C655   1.409       .  A
C654       Br659   1.937   1_556  S
C655        C656   1.410       .  A
C656       Br657   1.932       .  S
C661        C662   1.420       .  A
C661        C666   1.377       .  A
C661       Br668   1.932       .  S
C662        C663   1.427       .  A
C663        C664   1.386       .  A
C663       Br670   1.937       .  S
C664        C665   1.391       .  A
C664       Br669   1.934       .  S
C665        C666   1.387       .  A
C666       Br667   1.933       .  S
C671        C672   1.388       .  A
C671        C676   1.399       .  A
C671       Br678   1.924       .  S
C672        C673   1.425       .  A
C673        C674   1.413   1_554  A
C673       Br680   1.919   1_554  S
C674        C675   1.402   1_556  A
C674       Br679   1.927       .  S
C675        C676   1.402       .  A
C676       Br677   1.914       .  S
C681        C682   1.409       .  A
C681        C686   1.438       .  A
C681       Br688   1.931       .  S
C683        C684   1.436       .  A
C683       Br690   1.936       .  S
C684       Br689   1.950       .  S
C685        C686   1.453       .  A
C686       Br687   1.924       .  S
C691        C692   1.467       .  A
C691        C696   1.438       .  A
C691       Br698   1.926       .  S
C693        C694   1.432       .  A
C693       Br700   1.933       .  S
C694       Br699   1.939       .  S
C695        C696   1.410       .  A
C696       Br697   1.945       .  S
C701       C1542   1.432       .  A
C701        C706   1.440       .  A
C701       Br708   1.934       .  S
C702       C1541   1.430       .  A
C702        C703   1.406   1_455  A
C703        C704   1.439       .  A
C703       Br710   1.948       .  S
C704        C705   1.471       .  A
C704       Br709   1.927       .  S
C705       C1546   1.444   1_655  A
C706       C1545   1.444       .  A
C706       Br707   1.937       .  S
C711        C712   1.400       .  A
C711        C716   1.435       .  A
C711       Br718   1.932       .  S
C712       C1553   1.394   1_455  A
C713       C1552   1.394       .  A
C713        C714   1.419       .  A
C713       Br720   1.907       .  S
C714       C1555   1.468       .  A
C714       Br719   1.945       .  S
C715       C1554   1.466       .  A
C715        C716   1.461   1_655  A
C716       Br717   1.918       .  S
C721        C722   1.415       .  A
C721        C726   1.444       .  A
C721       Br728   1.933       .  S
C722        C723   1.432       .  A
C723        C724   1.423       .  A
C723       Br730   1.932       .  S
C724        C725   1.437       .  A
C724       Br729   1.945       .  S
C725        C726   1.462       .  A
C725       C1439   1.631       .  S
C726       Br727   1.925       .  S
C731        C732   1.404       .  A
C731        C736   1.440       .  A
C731       Br738   1.946       .  S
C732        C733   1.432       .  A
C733        C734   1.433       .  A
C733       Br740   1.944       .  S
C734        C735   1.447       .  A
C734       Br739   1.932       .  S
C735        C736   1.471       .  A
C736       Br737   1.929       .  S
C741        C742   1.412       .  A
C741        C746   1.443       .  A
C741       Br748   1.936       .  S
C742        C743   1.394       .  A
C743        C744   1.421       .  A
C743       Br750   1.920       .  S
C744        C745   1.466       .  A
C744       Br749   1.939       .  S
C745        C746   1.459       .  A
C746       Br747   1.924       .  S
C751        C752   1.457       .  A
C751        C756   1.436       .  A
C751       Br758   1.922       .  S
C752        C753   1.440       .  A
C753        C754   1.436       .  A
C753       Br760   1.928   1_565  S
C754        C755   1.442       .  A
C754       Br759   1.945       .  S
C755        C756   1.411       .  A
C756       Br757   1.935       .  S
C761        C762   1.414       .  A
C761        C766   1.395       .  A
C761       Br768   1.933       .  S
C762        C763   1.403       .  A
C763        C764   1.390       .  A
C763       Br770   1.913       .  S
C764        C765   1.406       .  A
C764       Br769   1.930       .  S
C765        C766   1.403       .  A
C766       Br767   1.933       .  S
C771        C772   1.397       .  A
C771        C776   1.400       .  A
C771       Br778   1.908       .  S
C772        C773   1.405       .  A
C773        C774   1.396       .  A
C773       Br780   1.886       .  S
C774        C775   1.393       .  A
C774       Br779   1.924       .  S
C775        C776   1.418       .  A
C776       Br777   1.921       .  S
C781        C782   1.407       .  A
C781        C786   1.390       .  A
C781       Br788   1.924       .  S
C782        C783   1.406       .  A
C783        C784   1.390       .  A
C783       Br790   1.926       .  S
C784        C785   1.399       .  A
C784       Br789   1.926       .  S
C785        C786   1.402       .  A
C786       Br787   1.928       .  S
C791        C792   1.429       .  A
C791        C796   1.398       .  A
C791       Br798   1.934       .  S
C792        C793   1.407       .  A
C793        C794   1.388       .  A
C793       Br800   1.922       .  S
C794        C795   1.402       .  A
C794       Br799   1.924       .  S
C795        C796   1.393       .  A
C796       Br797   1.935       .  S
C801        C802   1.401       .  A
C801        C806   1.432       .  A
C801       Br808   1.916       .  S
C802        C803   1.395       .  A
C803        C804   1.425       .  A
C803       Br810   1.937       .  S
C804        C805   1.481       .  A
C804       Br809   1.948       .  S
C805        C806   1.458       .  A
C806       Br807   1.940       .  S
C811        C812   1.467       .  A
C811        C816   1.442       .  A
C811       Br818   1.936       .  S
C812        C813   1.433       .  A
C812       C1437   1.639       .  S
C813        C814   1.429       .  A
C813       Br820   1.945       .  S
C814        C815   1.444       .  A
C814       Br819   1.950       .  S
C815        C816   1.414       .  A
C816       Br817   1.943       .  S
C821        C822   1.423       .  A
C821        C826   1.432       .  A
C821       Br828   1.948       .  S
C822        C823   1.409       .  A
C823        C824   1.443       .  A
C823       Br830   1.942       .  S
C824        C825   1.468       .  A
C824       Br829   1.927       .  S
C825        C826   1.455       .  A
C826       Br827   1.946       .  S
C831        C832   1.477       .  A
C831        C836   1.441       .  A
C831       Br838   1.950       .  S
C832        C833   1.453       .  A
C833        C834   1.424       .  A
C833       Br840   1.929       .  S
C834        C835   1.403       .  A
C834       Br839   1.936       .  S
C835        C836   1.404       .  A
C836       Br837   1.946       .  S
O841       Zr877   2.537       .  S
O841        C852   1.313       .  A
O842       Zr876   2.567       .  S
O842        C853   1.320       .  A
O843       Zr849   2.340       .  S
O843        C854   1.269       .  A
O844       Zr849   2.420       .  S
O844        C855   1.286       .  A
O845       Zr879   2.433       .  S
O845        C855   1.288       .  A
O846       Zr878   2.427       .  S
O846        C854   1.290       .  A
O847       Zr849   2.461       .  S
O847        C853   1.295       .  A
O848       Zr849   2.451       .  S
O848        C852   1.295       .  A
Zr849       O850   2.334       .  S
Zr849       O851   2.340       .  S
Zr849       O859   2.341       .  S
Zr849       O857   2.356       .  S
O850       Zr876   2.394       .  S
O850       Zr879   2.351       .  S
O851       Zr877   2.365       .  S
O851       Zr878   2.327       .  S
C852       C1255   1.540       .  S
C853       C1162   1.532       .  S
C854       C1182   1.448       .  S
C855       C1192   1.467       .  S
H856        O857   0.964       .  S
O857       Zr876   2.375       .  S
O857       Zr878   2.316       .  S
H858        O859   0.966       .  S
O859       Zr877   2.401       .  S
O859       Zr879   2.349       .  S
O860       Zr876   2.572       .  S
O860        C883   1.318       .  A
O861       Zr877   2.568       .  S
O861        C884   1.318       .  A
O862       Zr878   2.417       .  S
O862        C885   1.285       .  A
O863       Zr879   2.411       .  S
O863        C886   1.285       .  A
O864       Zr879   2.419       .  S
O864        C887   1.288       .  A
O865       Zr878   2.383       .  S
O865        C888   1.275       .  A
O866       Zr880   2.384       .  S
O866        C889   1.278       .  A
O867       Zr880   2.339       .  S
O867        C890   1.268       .  A
O868       Zr878   2.416       .  S
O868        C889   1.284       .  A
O869       Zr879   2.452       .  S
O869        C890   1.293       .  A
O870       Zr876   2.595       .  S
O870        C885   1.324       .  A
O871       Zr877   2.600       .  S
O871        C888   1.325       .  A
O872       Zr877   2.568       .  S
O872        C887   1.320       .  A
O873       Zr876   2.578       .  S
O873        C886   1.323       .  A
O874       Zr880   2.397       .  S
O874        C883   1.276       .  A
O875       Zr880   2.425       .  S
O875        C884   1.285       .  A
Zr876       O882   2.370       .  S
Zr876       O894   2.359       .  S
Zr877       O881   2.373       .  S
Zr877       O892   2.341       .  S
Zr878       O882   2.337       .  S
Zr878       O892   2.328       .  S
Zr879       O881   2.345       .  S
Zr879       O894   2.330       .  S
Zr880       O881   2.339       .  S
Zr880       O882   2.336       .  S
Zr880       O894   2.320       .  S
Zr880       O892   2.288       .  S
C883       C1175   1.557       .  S
C884       C1242   1.562       .  S
C885       C1142   1.560       .  S
C886       C1152   1.547       .  S
C887       C1222   1.520       .  S
C888       C1235   1.559       .  S
C889       C1215   1.440       .  S
C890       C1202   1.440       .  S
H891        O892   0.954       .  S
H893        O894   0.962       .  S
N895        C900   1.347       .  A
N895        H927   1.038       .  S
N896       C1323   1.344   1_545  A
N896        C904   1.346       .  A
N897        C902   1.347       .  A
N897        H928   1.037       .  S
N898       C1325   1.341       .  A
N898        C906   1.335   1_565  A
C899        C907   1.391       .  A
C899        C915   1.404       .  A
C900        C916   1.392   1_455  A
C900        C908   1.383       .  A
C901        C909   1.380       .  A
C901        C918   1.393       .  A
C902        C917   1.410       .  A
C902        C910   1.391       .  A
C903       N1316   1.344       .  A
C903        C915   1.396       .  A
C903        C911   1.380       .  A
C904        C918   1.395       .  A
C904        C912   1.388       .  A
C905       N1318   1.338       .  A
C905        C913   1.375       .  A
C905        C916   1.380       .  A
C906        C914   1.384       .  A
C906        C917   1.396       .  A
C907        H919   1.082       .  S
C908        H920   1.082       .  S
C909        H921   1.079       .  S
C910        H922   1.083       .  S
C911       C1332   1.364       .  A
C911        H923   1.081       .  S
C912       C1331   1.362       .  A
C912        H924   1.078       .  S
C913       C1334   1.370       .  A
C913        H925   1.079       .  S
C914       C1333   1.365   1_545  A
C914        H926   1.078       .  S
C915       C1205   1.450       .  S
C916       C1212   1.479       .  S
C917       C1185   1.450       .  S
C918       C1195   1.478       .  S
O929      Zr1385   2.558       .  S
O929        C940   1.318       .  A
O930       Zr964   2.528       .  S
O930        C941   1.309       .  A
O931       Zr937   2.392       .  S
O931        C942   1.278       .  A
O932        C943   1.286       .  A
O933      Zr1387   2.414       .  S
O933        C943   1.283       .  A
O934      Zr1386   2.405   1_556  S
O934        C942   1.280       .  A
O935       Zr937   2.437   1_554  S
O935        C941   1.289       .  A
O936       Zr937   2.407       .  S
O936        C940   1.285       .  A
Zr937       O939   2.333       .  S
Zr937       O945   2.339   1_556  S
O938      Zr1387   2.330   1_554  S
O939      Zr1385   2.345       .  S
O939      Zr1386   2.316   1_556  S
C940       C1132   1.511       .  S
C941       C1045   1.549       .  S
C942       C1065   1.474       .  S
C943       C1075   1.471       .  S
H944        O945   0.965       .  S
O945       Zr964   2.369       .  S
O945      Zr1386   2.350       .  S
H946        O947   0.965       .  S
O947      Zr1387   2.331       .  S
O948      Zr1384   2.581   1_545  S
O948        C971   1.321       .  A
O949       Zr965   2.574       .  S
O949        C972   1.321       .  A
O950      Zr1386   2.399       .  S
O950        C973   1.284       .  A
O951      Zr1387   2.414   1_554  S
O951        C974   1.284       .  A
O952       Zr967   2.442   1_545  S
O952        C975   1.291       .  A
O953       Zr966   2.379   1_556  S
O953        C976   1.277       .  A
O954       Zr968   2.385       .  S
O954        C977   1.278       .  A
O955        C978   1.277       .  A
O956       Zr966   2.463       .  S
O956        C977   1.294       .  A
O957       Zr967   2.329   1_544  S
O957        C978   1.266       .  A
O958       Zr964   2.561       .  S
O958        C973   1.318       .  A
O959       Zr965   2.580       .  S
O959        C976   1.322       .  A
O960        C975   1.319       .  A
O961        C974   1.318       .  A
O962       Zr968   2.431       .  S
O962        C971   1.288       .  A
O963       Zr968   2.417   1_556  S
O963        C972   1.285       .  A
Zr964      O1368   2.566       .  S
Zr964      O1390   2.382       .  S
Zr965      O1349   2.565   1_545  S
Zr965      O1359   2.352   1_545  S
Zr965       O980   2.367       .  S
Zr966      O1354   2.413   1_544  S
Zr966      O1370   2.397       .  S
Zr966      O1359   2.325   1_544  S
Zr966      O1365   2.349   1_545  S
Zr966       O970   2.331       .  S
Zr966       O980   2.332   1_554  S
Zr967      O1353   2.427       .  S
Zr967      O1371   2.412   1_556  S
Zr967      O1358   2.328   1_556  S
Zr967      O1367   2.321       .  S
Zr967       O969   2.342   1_565  S
Zr967       O982   2.353   1_566  S
Zr968       O970   2.339       .  S
Zr968       O980   2.332   1_554  S
O970      Zr1384   2.379   1_545  S
C971       C1052   1.538       .  S
C972       C1122   1.547       .  S
C973       C1025   1.515       .  S
C974       C1032   1.556       .  S
C975       C1102   1.536       .  S
C976       C1115   1.550       .  S
C977       C1095   1.476       .  S
C978       C1082   1.431       .  S
H979        O980   0.966       .  S
H981        O982   0.965       .  S
N983        C988   1.339       .  A
N983        C987   1.327       .  A
N983       H1015   1.035       .  S
N984        C991   1.339       .  A
N984        C992   1.350       .  A
N985        C990   1.338       .  A
N985        C989   1.342       .  A
N985       H1016   1.046       .  S
N986        C993   1.338       .  A
N986        C994   1.332       .  A
C987        C995   1.390       .  A
C987       C1003   1.387       .  A
C988       C1004   1.378       .  A
C988        C996   1.383       .  A
C989        C997   1.381       .  A
C989       C1006   1.392       .  A
C990       C1005   1.393       .  A
C990        C998   1.386       .  A
C991       C1003   1.415   1_556  A
C991        C999   1.396       .  A
C992       C1006   1.388       .  A
C992       C1000   1.375       .  A
C993       C1001   1.374       .  A
C993       C1004   1.378       .  A
C994       C1002   1.397       .  A
C994       C1005   1.404   1_554  A
C995        C996   1.362       .  A
C995       H1007   1.082       .  S
C996       H1008   1.081       .  S
C997        C998   1.382       .  A
C997       H1009   1.082       .  S
C998       H1010   1.082       .  S
C999       C1000   1.375       .  A
C999       H1011   1.080       .  S
C1000      H1012   1.081       .  S
C1001      C1002   1.372       .  A
C1001      H1013   1.082       .  S
C1002      H1014   1.081       .  S
C1003      C1085   1.420       .  S
C1004      C1092   1.477       .  S
C1005      C1062   1.450       .  S
C1006      C1072   1.512       .  S
C1017      C1042   1.622       .  S
C1017      C1055   1.664       .  S
C1017      C1225   1.665       .  S
C1018      C1442   1.657       .  S
C1018      C1455   1.652       .  S
C1018      C1665   1.653       .  S
C1018      C1252   1.663   1_565  S
C1019      C1125   1.643       .  S
C1019      C1135   1.646       .  S
C1019      C1155   1.656       .  S
C1020      C1105   1.668       .  S
C1020      C1112   1.646   1_545  S
C1020      C1165   1.657       .  S
C1020      C1592   1.631   1_545  S
C1021      C1442   1.460   1_545  A
C1021      C1026   1.427       .  A
C1021     Br1028   1.932       .  S
C1022      C1441   1.462       .  A
C1022      C1023   1.477       .  A
C1022      C1438   1.663       .  S
C1023      C1024   1.435       .  A
C1023     Br1030   1.942       .  S
C1024      C1025   1.400       .  A
C1024     Br1029   1.942       .  S
C1025      C1446   1.401       .  A
C1026      C1445   1.403   1_545  A
C1026     Br1027   1.944       .  S
C1031      C1452   1.425       .  A
C1031      C1036   1.434       .  A
C1031     Br1038   1.945       .  S
C1032      C1451   1.425       .  A
C1032      C1033   1.408       .  A
C1033      C1034   1.441       .  A
C1033     Br1040   1.935       .  S
C1034      C1035   1.463       .  A
C1034     Br1039   1.921       .  S
C1035      C1456   1.448       .  A
C1035      C1438   1.647       .  S
C1036      C1455   1.451       .  A
C1036     Br1037   1.940       .  S
C1041      C1046   1.427   1_655  A
C1041     Br1048   1.934       .  S
C1042      C1043   1.455       .  A
C1043      C1044   1.437       .  A
C1043     Br1050   1.927       .  S
C1044      C1045   1.418       .  A
C1044     Br1049   1.941       .  S
C1046     Br1047   1.935       .  S
C1051      C1056   1.444       .  A
C1051     Br1058   1.942       .  S
C1052      C1053   1.400       .  A
C1053      C1054   1.434       .  A
C1053     Br1060   1.920       .  S
C1054      C1055   1.440       .  A
C1054     Br1059   1.912       .  S
C1056     Br1057   1.920       .  S
C1061      C1062   1.395       .  A
C1061      C1066   1.393       .  A
C1061     Br1068   1.936       .  S
C1062      C1063   1.404       .  A
C1063      C1064   1.398       .  A
C1063     Br1070   1.942       .  S
C1064      C1065   1.423       .  A
C1064     Br1069   1.933       .  S
C1065      C1066   1.420       .  A
C1066     Br1067   1.933   1_556  S
C1071      C1072   1.415       .  A
C1071      C1076   1.398       .  A
C1071     Br1078   1.932       .  S
C1072      C1073   1.426       .  A
C1073      C1074   1.405       .  A
C1073     Br1080   1.931       .  S
C1074      C1075   1.407       .  A
C1074     Br1079   1.936   1_556  S
C1075      C1076   1.408       .  A
C1076     Br1077   1.934       .  S
C1081      C1082   1.418       .  A
C1081      C1086   1.373       .  A
C1081     Br1088   1.935       .  S
C1082      C1083   1.424       .  A
C1083      C1084   1.382       .  A
C1083     Br1090   1.941   1_554  S
C1084      C1085   1.391       .  A
C1084     Br1089   1.932       .  S
C1085      C1086   1.386       .  A
C1086     Br1087   1.932       .  S
C1091      C1092   1.386       .  A
C1091      C1096   1.396       .  A
C1091     Br1098   1.923       .  S
C1092      C1093   1.422       .  A
C1093      C1094   1.410   1_554  A
C1093     Br1100   1.922   1_554  S
C1094      C1095   1.401   1_556  A
C1094     Br1099   1.926       .  S
C1095      C1096   1.404       .  A
C1096     Br1097   1.912       .  S
C1101      C1102   1.408       .  A
C1101      C1106   1.440       .  A
C1101     Br1108   1.933       .  S
C1102      C1523   1.395   1_545  A
C1103      C1522   1.392       .  A
C1103      C1104   1.434       .  A
C1103     Br1110   1.940       .  S
C1104      C1525   1.482       .  A
C1104     Br1109   1.949       .  S
C1105      C1524   1.482   1_545  A
C1105      C1106   1.454       .  A
C1106     Br1107   1.925       .  S
C1111      C1112   1.469       .  A
C1111      C1116   1.435       .  A
C1111     Br1118   1.921       .  S
C1112      C1533   1.439   1_565  A
C1113      C1532   1.445       .  A
C1113      C1114   1.439       .  A
C1113     Br1120   1.940       .  S
C1114      C1535   1.442       .  A
C1114     Br1119   1.943       .  S
C1115      C1534   1.437       .  A
C1115      C1116   1.406   1_545  A
C1116     Br1117   1.947       .  S
C1121      C1126   1.437       .  A
C1121     Br1128   1.932       .  S
C1122      C1123   1.405       .  A
C1123      C1124   1.436       .  A
C1123     Br1130   1.944       .  S
C1124      C1125   1.465       .  A
C1124     Br1129   1.920       .  S
C1126     Br1127   1.937   1_455  S
C1131      C1132   1.401       .  A
C1131      C1136   1.432       .  A
C1131     Br1138   1.931       .  S
C1133      C1134   1.414       .  A
C1133     Br1140   1.909       .  S
C1134     Br1139   1.944       .  S
C1135      C1136   1.460       .  A
C1136     Br1137   1.921       .  S
C1141      C1142   1.414       .  A
C1141      C1146   1.444       .  A
C1141     Br1148   1.933       .  S
C1142      C1143   1.434       .  A
C1143      C1144   1.428       .  A
C1143     Br1150   1.932       .  S
C1144      C1145   1.441       .  A
C1144     Br1149   1.948       .  S
C1145      C1146   1.462       .  A
C1146     Br1147   1.928       .  S
C1151      C1152   1.406       .  A
C1151      C1156   1.441       .  A
C1151     Br1158   1.951       .  S
C1152      C1153   1.426       .  A
C1153      C1154   1.430       .  A
C1153     Br1160   1.943       .  S
C1154      C1155   1.448       .  A
C1154     Br1159   1.934       .  S
C1155      C1156   1.473       .  A
C1156     Br1157   1.933       .  S
C1161      C1162   1.416       .  A
C1161      C1166   1.446       .  A
C1161     Br1168   1.933       .  S
C1162      C1163   1.398       .  A
C1163      C1164   1.408       .  A
C1163     Br1170   1.910       .  S
C1164      C1165   1.454       .  A
C1164     Br1169   1.934       .  S
C1165      C1166   1.458       .  A
C1166     Br1167   1.922       .  S
C1171      C1172   1.458       .  A
C1171      C1176   1.433       .  A
C1171     Br1178   1.922       .  S
C1172      C1173   1.444       .  A
C1172      C1440   1.632       .  S
C1173      C1174   1.437       .  A
C1173     Br1180   1.940       .  S
C1174      C1175   1.444       .  A
C1174     Br1179   1.947       .  S
C1175      C1176   1.409       .  A
C1176     Br1177   1.934       .  S
C1181      C1182   1.408       .  A
C1181      C1186   1.392       .  A
C1181     Br1188   1.920       .  S
C1182      C1183   1.397       .  A
C1183      C1184   1.384       .  A
C1183     Br1190   1.920       .  S
C1184      C1185   1.407       .  A
C1184     Br1189   1.929       .  S
C1185      C1186   1.401       .  A
C1186     Br1187   1.933   1_545  S
C1191      C1192   1.398       .  A
C1191      C1196   1.400       .  A
C1191     Br1198   1.907       .  S
C1192      C1193   1.403       .  A
C1193      C1194   1.395       .  A
C1193     Br1200   1.889       .  S
C1194      C1195   1.392       .  A
C1194     Br1199   1.920       .  S
C1195      C1196   1.416       .  A
C1196     Br1197   1.919       .  S
C1201      C1202   1.404       .  A
C1201      C1206   1.389       .  A
C1201     Br1208   1.926       .  S
C1202      C1203   1.406       .  A
C1203      C1204   1.392       .  A
C1203     Br1210   1.923       .  S
C1204      C1205   1.403       .  A
C1204     Br1209   1.929       .  S
C1205      C1206   1.403       .  A
C1206     Br1207   1.928       .  S
C1211      C1212   1.431       .  A
C1211      C1216   1.399       .  A
C1211     Br1218   1.934       .  S
C1212      C1213   1.408       .  A
C1213      C1214   1.389       .  A
C1213     Br1220   1.928       .  S
C1214      C1215   1.403       .  A
C1214     Br1219   1.922       .  S
C1215      C1216   1.394       .  A
C1216     Br1217   1.937       .  S
C1221      C1222   1.401       .  A
C1221      C1226   1.431       .  A
C1221     Br1228   1.911       .  S
C1222      C1223   1.394       .  A
C1223      C1224   1.430       .  A
C1223     Br1230   1.943       .  S
C1224      C1225   1.483       .  A
C1224     Br1229   1.942       .  S
C1225      C1226   1.455       .  A
C1226     Br1227   1.939       .  S
C1231      C1232   1.465       .  A
C1231      C1236   1.441       .  A
C1231     Br1238   1.932       .  S
C1232      C1233   1.435       .  A
C1233      C1234   1.428       .  A
C1233     Br1240   1.949       .  S
C1234      C1235   1.445       .  A
C1234     Br1239   1.948       .  S
C1235      C1236   1.416       .  A
C1236     Br1237   1.942       .  S
C1241      C1242   1.425       .  A
C1241      C1246   1.434       .  A
C1241     Br1248   1.943       .  S
C1242      C1243   1.410       .  A
C1243      C1244   1.445       .  A
C1243     Br1250   1.939       .  S
C1244      C1245   1.467       .  A
C1244     Br1249   1.927       .  S
C1245      C1246   1.452       .  A
C1245      C1438   1.655       .  S
C1246     Br1247   1.944       .  S
C1251      C1252   1.477       .  A
C1251      C1256   1.445       .  A
C1251     Br1258   1.947       .  S
C1252      C1253   1.457       .  A
C1253      C1254   1.430       .  A
C1253     Br1260   1.933   1_545  S
C1254      C1255   1.406       .  A
C1254     Br1259   1.933       .  S
C1255      C1256   1.406       .  A
C1256     Br1257   1.944       .  S
O1261     Zr1297   2.532       .  S
O1261      C1272   1.312       .  A
O1262     Zr1296   2.558       .  S
O1262      C1273   1.318       .  A
O1263     Zr1269   2.358       .  S
O1263      C1274   1.272       .  A
O1264     Zr1269   2.436       .  S
O1264      C1275   1.289       .  A
O1265     Zr1299   2.425       .  S
O1265      C1275   1.286       .  A
O1266     Zr1298   2.445       .  S
O1266      C1274   1.293       .  A
O1267     Zr1269   2.466       .  S
O1267      C1273   1.297       .  A
O1268     Zr1269   2.442       .  S
O1268      C1272   1.294       .  A
Zr1269     O1270   2.331       .  S
Zr1269     O1271   2.339       .  S
Zr1269     O1279   2.348       .  S
Zr1269     O1277   2.357       .  S
O1270     Zr1296   2.392       .  S
O1270     Zr1299   2.349       .  S
O1271     Zr1297   2.356       .  S
O1271     Zr1298   2.319       .  S
C1272      C1675   1.532       .  S
C1273      C1582   1.531       .  S
C1274      C1602   1.461       .  S
C1275      C1612   1.471       .  S
H1276      O1277   0.964       .  S
O1277     Zr1296   2.382       .  S
O1277     Zr1298   2.321       .  S
H1278      O1279   0.966       .  S
O1279     Zr1297   2.406       .  S
O1279     Zr1299   2.346       .  S
O1280     Zr1296   2.576       .  S
O1280      C1303   1.319       .  A
O1281     Zr1297   2.557       .  S
O1281      C1304   1.315       .  A
O1282     Zr1298   2.409       .  S
O1282      C1305   1.284       .  A
O1283     Zr1299   2.405       .  S
O1283      C1306   1.283       .  A
O1284     Zr1299   2.417       .  S
O1284      C1307   1.287       .  A
O1285     Zr1298   2.381       .  S
O1285      C1308   1.276       .  A
O1286     Zr1300   2.385       .  S
O1286      C1309   1.279       .  A
O1287     Zr1300   2.350       .  S
O1287      C1310   1.270       .  A
O1288     Zr1298   2.422       .  S
O1288      C1309   1.285       .  A
O1289     Zr1299   2.434       .  S
O1289      C1310   1.289       .  A
O1290     Zr1296   2.595       .  S
O1290      C1305   1.324       .  A
O1291     Zr1297   2.603       .  S
O1291      C1308   1.326       .  A
O1292     Zr1297   2.556       .  S
O1292      C1307   1.317       .  A
O1293     Zr1296   2.590       .  S
O1293      C1306   1.325       .  A
O1294     Zr1300   2.405       .  S
O1294      C1303   1.279       .  A
O1295     Zr1300   2.417       .  S
O1295      C1304   1.283       .  A
Zr1296     O1302   2.371       .  S
Zr1296     O1314   2.356       .  S
Zr1297     O1301   2.368       .  S
Zr1297     O1312   2.341       .  S
Zr1298     O1302   2.343       .  S
Zr1298     O1312   2.328       .  S
Zr1299     O1301   2.340       .  S
Zr1299     O1314   2.332       .  S
Zr1300     O1301   2.333       .  S
Zr1300     O1302   2.336       .  S
Zr1300     O1314   2.319       .  S
Zr1300     O1312   2.299       .  S
C1303      C1595   1.558       .  S
C1304      C1662   1.556       .  S
C1305      C1562   1.555       .  S
C1306      C1572   1.554       .  S
C1307      C1642   1.516       .  S
C1308      C1655   1.556       .  S
C1309      C1635   1.442       .  S
C1310      C1622   1.438       .  S
H1311      O1312   0.965       .  S
H1313      O1314   0.962       .  S
N1315      C1320   1.348       .  A
N1315      H1347   1.037       .  S
N1316      C1324   1.346       .  A
N1317      C1322   1.349       .  A
N1317      H1348   1.036       .  S
N1318      C1326   1.332       .  A
C1319      C1327   1.391       .  A
C1319      C1335   1.404       .  A
C1320      C1336   1.392   1_455  A
C1320      C1328   1.382       .  A
C1321      C1329   1.381       .  A
C1321      C1338   1.395       .  A
C1322      C1337   1.413       .  A
C1322      C1330   1.391       .  A
C1323      C1335   1.394       .  A
C1323      C1331   1.377   1_565  A
C1324      C1338   1.397       .  A
C1324      C1332   1.389       .  A
C1325      C1333   1.377       .  A
C1325      C1336   1.384       .  A
C1326      C1334   1.386       .  A
C1326      C1337   1.393       .  A
C1327      H1339   1.081       .  S
C1328      H1340   1.082       .  S
C1329      H1341   1.081       .  S
C1330      H1342   1.082       .  S
C1331      H1343   1.079       .  S
C1332      H1344   1.079       .  S
C1333      H1345   1.076       .  S
C1334      H1346   1.079       .  S
C1335      C1625   1.451       .  S
C1336      C1632   1.480       .  S
C1337      C1605   1.451       .  S
C1338      C1615   1.480       .  S
O1349      C1360   1.320       .  A
O1350     Zr1384   2.529       .  S
O1350      C1361   1.310       .  A
O1351     Zr1357   2.388       .  S
O1351      C1362   1.278       .  A
O1352      C1363   1.286       .  A
O1353      C1363   1.286       .  A
O1354      C1362   1.281       .  A
O1355     Zr1357   2.439   1_554  S
O1355      C1361   1.290       .  A
O1356     Zr1357   2.420       .  S
O1356      C1360   1.287       .  A
Zr1357     O1359   2.337       .  S
Zr1357     O1365   2.344   1_556  S
C1360      C1552   1.520       .  S
C1361      C1465   1.550       .  S
C1362      C1485   1.478       .  S
C1363      C1495   1.478       .  S
H1364      O1365   0.965       .  S
O1365     Zr1384   2.372       .  S
H1366      O1367   0.965       .  S
O1368      C1391   1.319       .  A
O1369     Zr1385   2.568       .  S
O1369      C1392   1.320       .  A
O1370      C1393   1.284       .  A
O1371      C1394   1.284       .  A
O1372     Zr1387   2.424       .  S
O1372      C1395   1.288       .  A
O1373     Zr1386   2.387   1_556  S
O1373      C1396   1.278       .  A
O1374     Zr1388   2.400       .  S
O1374      C1397   1.282       .  A
O1375      C1398   1.278       .  A
O1376     Zr1386   2.447       .  S
O1376      C1397   1.291       .  A
O1377     Zr1387   2.341   1_554  S
O1377      C1398   1.267       .  A
O1378     Zr1384   2.563   1_545  S
O1378      C1393   1.318       .  A
O1379     Zr1385   2.592       .  S
O1379      C1396   1.324       .  A
O1380      C1395   1.319       .  A
O1381      C1394   1.320       .  A
O1382     Zr1388   2.421       .  S
O1382      C1391   1.287       .  A
O1383     Zr1388   2.427   1_556  S
O1383      C1392   1.287       .  A
Zr1385     O1400   2.364       .  S
Zr1386     O1390   2.332       .  S
Zr1386     O1400   2.335   1_554  S
Zr1387     O1389   2.340       .  S
Zr1387     O1402   2.341   1_556  S
Zr1388     O1390   2.344       .  S
Zr1388     O1400   2.335   1_554  S
C1391      C1472   1.525       .  S
C1392      C1542   1.554       .  S
C1393      C1445   1.515   1_545  S
C1394      C1452   1.557       .  S
C1395      C1522   1.529       .  S
C1396      C1535   1.560       .  S
C1397      C1515   1.478       .  S
C1398      C1502   1.444       .  S
H1399      O1400   0.966       .  S
H1401      O1402   0.964       .  S
N1403      C1408   1.340       .  A
N1403      C1407   1.330       .  A
N1403      H1435   1.035       .  S
N1404      C1411   1.338       .  A
N1404      C1412   1.349       .  A
N1405      C1410   1.338       .  A
N1405      C1409   1.342       .  A
N1405      H1436   1.046       .  S
N1406      C1413   1.338       .  A
N1406      C1414   1.333       .  A
C1407      C1415   1.390       .  A
C1407      C1423   1.392       .  A
C1408      C1424   1.383       .  A
C1408      C1416   1.383       .  A
C1409      C1417   1.382       .  A
C1409      C1426   1.393       .  A
C1410      C1425   1.393       .  A
C1410      C1418   1.387       .  A
C1411      C1423   1.415   1_556  A
C1411      C1419   1.396       .  A
C1412      C1426   1.386       .  A
C1412      C1420   1.375       .  A
C1413      C1421   1.375       .  A
C1413      C1424   1.381       .  A
C1414      C1422   1.395       .  A
C1414      C1425   1.402   1_554  A
C1415      C1416   1.365       .  A
C1415      H1427   1.083       .  S
C1416      H1428   1.080       .  S
C1417      C1418   1.383       .  A
C1417      H1429   1.082       .  S
C1418      H1430   1.081       .  S
C1419      C1420   1.375       .  A
C1419      H1431   1.079       .  S
C1420      H1432   1.082       .  S
C1421      C1422   1.375       .  A
C1421      H1433   1.082       .  S
C1422      H1434   1.081       .  S
C1423      C1505   1.427       .  S
C1424      C1512   1.484       .  S
C1425      C1482   1.449       .  S
C1426      C1492   1.513       .  S
C1437      C1462   1.620       .  S
C1437      C1475   1.664       .  S
C1437      C1645   1.667       .  S
C1438      C1672   1.657       .  S
C1439      C1545   1.651       .  S
C1439      C1555   1.658       .  S
C1439      C1575   1.658       .  S
C1440      C1525   1.665       .  S
C1440      C1532   1.649       .  S
C1440      C1585   1.663       .  S
C1441      C1446   1.427       .  A
C1441     Br1448   1.931       .  S
C1442      C1443   1.476       .  A
C1443      C1444   1.433       .  A
C1443     Br1450   1.944       .  S
C1444      C1445   1.400       .  A
C1444     Br1449   1.943       .  S
C1446     Br1447   1.943       .  S
C1451      C1456   1.433       .  A
C1451     Br1458   1.945       .  S
C1452      C1453   1.408       .  A
C1453      C1454   1.442       .  A
C1453     Br1460   1.935   1_565  S
C1454      C1455   1.463       .  A
C1454     Br1459   1.918       .  S
C1456     Br1457   1.934       .  S
C1461      C1466   1.423   1_655  A
C1461     Br1468   1.930       .  S
C1462      C1463   1.455       .  A
C1463      C1464   1.438       .  A
C1463     Br1470   1.931       .  S
C1464      C1465   1.418       .  A
C1464     Br1469   1.937       .  S
C1466     Br1467   1.931       .  S
C1471      C1476   1.445       .  A
C1471     Br1478   1.944       .  S
C1472      C1473   1.394       .  A
C1473      C1474   1.431       .  A
C1473     Br1480   1.918       .  S
C1474      C1475   1.441       .  A
C1474     Br1479   1.913       .  S
C1476     Br1477   1.919       .  S
C1481      C1482   1.397       .  A
C1481      C1486   1.395       .  A
C1481     Br1488   1.938       .  S
C1482      C1483   1.401       .  A
C1483      C1484   1.397       .  A
C1483     Br1490   1.942       .  S
C1484      C1485   1.427       .  A
C1484     Br1489   1.936       .  S
C1485      C1486   1.424       .  A
C1486     Br1487   1.937   1_556  S
C1491      C1492   1.415       .  A
C1491      C1496   1.401       .  A
C1491     Br1498   1.934       .  S
C1492      C1493   1.424       .  A
C1493      C1494   1.406       .  A
C1493     Br1500   1.932       .  S
C1494      C1495   1.410       .  A
C1494     Br1499   1.934   1_556  S
C1495      C1496   1.411       .  A
C1496     Br1497   1.934       .  S
C1501      C1502   1.421       .  A
C1501      C1506   1.376       .  A
C1501     Br1508   1.935       .  S
C1502      C1503   1.427       .  A
C1503      C1504   1.387       .  A
C1503     Br1510   1.939       .  S
C1504      C1505   1.393       .  A
C1504     Br1509   1.935       .  S
C1505      C1506   1.386       .  A
C1506     Br1507   1.931       .  S
C1511      C1512   1.387       .  A
C1511      C1516   1.399       .  A
C1511     Br1518   1.924       .  S
C1512      C1513   1.424       .  A
C1513      C1514   1.412   1_554  A
C1513     Br1520   1.918   1_554  S
C1514      C1515   1.402   1_556  A
C1514     Br1519   1.926       .  S
C1515      C1516   1.401       .  A
C1516     Br1517   1.913       .  S
C1521      C1522   1.410       .  A
C1521      C1526   1.437       .  A
C1521     Br1528   1.932       .  S
C1523      C1524   1.438       .  A
C1523     Br1530   1.937       .  S
C1524     Br1529   1.949       .  S
C1525      C1526   1.452       .  A
C1526     Br1527   1.926       .  S
C1531      C1532   1.466       .  A
C1531      C1536   1.438       .  A
C1531     Br1538   1.924       .  S
C1533      C1534   1.432       .  A
C1533     Br1540   1.935   1_545  S
C1534     Br1539   1.939       .  S
C1535      C1536   1.410       .  A
C1536     Br1537   1.944       .  S
C1541      C1546   1.438       .  A
C1541     Br1548   1.931       .  S
C1542      C1543   1.409       .  A
C1543      C1544   1.440       .  A
C1543     Br1550   1.949       .  S
C1544      C1545   1.470       .  A
C1544     Br1549   1.930       .  S
C1546     Br1547   1.936   1_455  S
C1551      C1552   1.401       .  A
C1551      C1556   1.436       .  A
C1551     Br1558   1.932       .  S
C1553      C1554   1.417       .  A
C1553     Br1560   1.907       .  S
C1554     Br1559   1.943       .  S
C1555      C1556   1.461       .  A
C1556     Br1557   1.918       .  S
C1561      C1562   1.414       .  A
C1561      C1566   1.443       .  A
C1561     Br1568   1.934       .  S
C1562      C1563   1.434       .  A
C1563      C1564   1.424       .  A
C1563     Br1570   1.934       .  S
C1564      C1565   1.438       .  A
C1564     Br1569   1.948       .  S
C1565      C1566   1.463       .  A
C1566     Br1567   1.927       .  S
C1571      C1572   1.406       .  A
C1571      C1576   1.441       .  A
C1571     Br1578   1.948       .  S
C1572      C1573   1.430       .  A
C1573      C1574   1.433       .  A
C1573     Br1580   1.945       .  S
C1574      C1575   1.447       .  A
C1574     Br1579   1.931       .  S
C1575      C1576   1.473       .  A
C1576     Br1577   1.930       .  S
C1581      C1582   1.411       .  A
C1581      C1586   1.442       .  A
C1581     Br1588   1.937       .  S
C1582      C1583   1.394       .  A
C1583      C1584   1.421       .  A
C1583     Br1590   1.919       .  S
C1584      C1585   1.466       .  A
C1584     Br1589   1.940       .  S
C1585      C1586   1.460       .  A
C1586     Br1587   1.924       .  S
C1591      C1592   1.457       .  A
C1591      C1596   1.436       .  A
C1591     Br1598   1.922       .  S
C1592      C1593   1.440       .  A
C1593      C1594   1.435       .  A
C1593     Br1600   1.928   1_565  S
C1594      C1595   1.442       .  A
C1594     Br1599   1.944       .  S
C1595      C1596   1.411       .  A
C1596     Br1597   1.937       .  S
C1601      C1602   1.413       .  A
C1601      C1606   1.393       .  A
C1601     Br1608   1.932       .  S
C1602      C1603   1.402       .  A
C1603      C1604   1.388       .  A
C1603     Br1610   1.913       .  S
C1604      C1605   1.405       .  A
C1604     Br1609   1.931       .  S
C1605      C1606   1.402       .  A
C1606     Br1607   1.933       .  S
C1611      C1612   1.397       .  A
C1611      C1616   1.402       .  A
C1611     Br1618   1.910       .  S
C1612      C1613   1.403       .  A
C1613      C1614   1.395       .  A
C1613     Br1620   1.885       .  S
C1614      C1615   1.392       .  A
C1614     Br1619   1.922       .  S
C1615      C1616   1.419       .  A
C1616     Br1617   1.917       .  S
C1621      C1622   1.407       .  A
C1621      C1626   1.389       .  A
C1621     Br1628   1.925       .  S
C1622      C1623   1.407       .  A
C1623      C1624   1.391       .  A
C1623     Br1630   1.925       .  S
C1624      C1625   1.400       .  A
C1624     Br1629   1.927       .  S
C1625      C1626   1.402       .  A
C1626     Br1627   1.928       .  S
C1631      C1632   1.431       .  A
C1631      C1636   1.400       .  A
C1631     Br1638   1.934       .  S
C1632      C1633   1.407       .  A
C1633      C1634   1.389       .  A
C1633     Br1640   1.924       .  S
C1634      C1635   1.402       .  A
C1634     Br1639   1.922       .  S
C1635      C1636   1.394       .  A
C1636     Br1637   1.935       .  S
C1641      C1642   1.399       .  A
C1641      C1646   1.431       .  A
C1641     Br1648   1.916       .  S
C1642      C1643   1.395       .  A
C1643      C1644   1.426       .  A
C1643     Br1650   1.937       .  S
C1644      C1645   1.483       .  A
C1644     Br1649   1.949       .  S
C1645      C1646   1.458       .  A
C1646     Br1647   1.939       .  S
C1651      C1652   1.467       .  A
C1651      C1656   1.441       .  A
C1651     Br1658   1.935       .  S
C1652      C1653   1.434       .  A
C1653      C1654   1.428       .  A
C1653     Br1660   1.945       .  S
C1654      C1655   1.443       .  A
C1654     Br1659   1.950       .  S
C1655      C1656   1.414       .  A
C1656     Br1657   1.944       .  S
C1661      C1662   1.427       .  A
C1661      C1666   1.433       .  A
C1661     Br1668   1.948       .  S
C1662      C1663   1.409       .  A
C1663      C1664   1.443       .  A
C1663     Br1670   1.942       .  S
C1664      C1665   1.467       .  A
C1664     Br1669   1.927       .  S
C1665      C1666   1.453       .  A
C1666     Br1667   1.948       .  S
C1671      C1672   1.478       .  A
C1671      C1676   1.442       .  A
C1671     Br1678   1.950       .  S
C1672      C1673   1.454       .  A
C1673      C1674   1.426       .  A
C1673     Br1680   1.931       .  S
C1674      C1675   1.404       .  A
C1674     Br1679   1.934       .  S
C1675      C1676   1.404       .  A
C1676     Br1677   1.945       .  S
