geometry optimzed in LAMMPS
_audit_creation_date              2020-11-30 
_audit_creation_method            'lammps2cif' 
_symmetry_space_group_name_H-M    'P1' 
_symmetry_Int_Tables_number       1 
_symmetry_cell_setting            triclinic 
loop_ 
_symmetry_equiv_pos_as_xyz 
  x,y,z 
_cell_length_a                    36.87957115760577 
_cell_length_b                    36.962157292345836 
_cell_length_c                    37.06726267767041 
_cell_angle_alpha                 89.42842482629543 
_cell_angle_beta                  90.39657155069625 
_cell_angle_gamma                 89.99779605021084 
loop_ 
_atom_site_label 
_atom_site_type_symbol 
_atom_site_fract_x 
_atom_site_fract_y 
_atom_site_fract_z 
_atom_site_charge 
C1          C  0.10372647  0.86622889  0.52837308     0.00830
C2          C  0.08839891  0.85875055  0.49349183     0.00830
C3          C  0.11065390  0.86671366  0.46268533     0.00830
C4          C  0.13971814  0.89222607  0.46672088     0.00830
C5          C  0.14221121  0.91143653  0.49974236     0.00830
C6          C  0.12973120  0.89433956  0.53131442     0.00830
C7          C  0.13827781  0.08491916  0.46666287     0.00830
C8          C  0.14827564  0.06944523  0.50012670     0.00830
C9          C  0.13736444  0.08865966  0.53151550     0.00830
C10         C  0.10244281  0.10589029  0.52921542     0.00830
C11         C  0.08448439  0.10996214  0.49510287     0.00830
C12         C  0.10653004  0.10647136  0.46430483     0.00830
C13         C  0.90379669  0.11910266  0.46733186     0.00830
C14         C  0.92423552  0.12694577  0.49911056     0.00830
C15         C  0.90510095  0.12322226  0.53276439     0.00830
C16         C  0.87300975  0.10057866  0.53377863     0.00830
C17         C  0.86781458  0.07688453  0.50401544     0.00830
C18         C  0.87447010  0.09378844  0.46984010     0.00830
C19         C  0.90901011  0.85993795  0.47110405     0.00830
C20         C  0.93024009  0.85377600  0.50337261     0.00830
C21         C  0.91784427  0.87015221  0.53533495     0.00830
C22         C  0.89582361  0.90141924  0.53321164     0.00830
C23         C  0.88961170  0.91791757  0.49911073     0.00830
C24         C  0.89179372  0.89545645  0.46778015     0.00830
C25         C  0.47694870  0.11268286  0.09352705     0.00830
C26         C  0.50948189  0.11853521  0.07422320     0.00830
C27         C  0.54236797  0.11093986  0.09258572     0.00830
C28         C  0.54192439  0.08739238  0.12323456     0.00830
C29         C  0.50941003  0.06950764  0.13272853     0.00830
C30         C  0.47646092  0.08658740  0.12218273     0.00830
C31         C  0.47760875  0.11732937  0.89699334     0.00830
C32         C  0.51002504  0.12652637  0.91562215     0.00830
C33         C  0.54301790  0.11520533  0.89964226     0.00830
C34         C  0.54336368  0.08420166  0.87683051     0.00830
C35         C  0.51015075  0.06673718  0.86924256     0.00830
C36         C  0.47780383  0.08659055  0.87385317     0.00830
C37         C  0.53973928  0.85712212  0.09749800     0.00830
C38         C  0.54239659  0.88815661  0.12013658     0.00830
C39         C  0.51165845  0.91108018  0.12326026     0.00830
C40         C  0.47716397  0.89490437  0.11726656     0.00830
C41         C  0.47492760  0.86372506  0.09505717     0.00830
C42         C  0.50648893  0.84956508  0.07950103     0.00830
C43         C  0.47623909  0.89217821  0.87607381     0.00830
C44         C  0.50851241  0.90848252  0.86334239     0.00830
C45         C  0.54176286  0.89034067  0.87091964     0.00830
C46         C  0.54419664  0.86636719  0.90161433     0.00830
C47         C  0.51200830  0.85934311  0.92179574     0.00830
C48         C  0.47802737  0.86667119  0.90507025     0.00830
C49         C  0.11325993  0.46156009  0.86317271     0.00830
C50         C  0.09233086  0.49405505  0.85794545     0.00830
C51         C  0.10813460  0.52617564  0.87239467     0.00830
C52         C  0.13026032  0.52385071  0.90358115     0.00830
C53         C  0.13578438  0.48983573  0.91964917     0.00830
C54         C  0.13253372  0.45882624  0.89748216     0.00830
C55         C  0.10887725  0.45560737  0.12674893     0.00830
C56         C  0.13369904  0.45636288  0.09744284     0.00830
C57         C  0.13844939  0.48871966  0.07747029     0.00830
C58         C  0.12832812  0.52151707  0.09394330     0.00830
C59         C  0.10267918  0.52084425  0.12251740     0.00830
C60         C  0.08868651  0.48717372  0.13489531     0.00830
C61         C  0.87949686  0.45770434  0.10292213     0.00830
C62         C  0.90879258  0.45598668  0.12837051     0.00830
C63         C  0.92992194  0.48737729  0.13473044     0.00830
C64         C  0.91348589  0.52102653  0.12751883     0.00830
C65         C  0.88576753  0.52303109  0.10042154     0.00830
C66         C  0.87344032  0.49060781  0.08328773     0.00830
C67         C  0.91359794  0.52036961  0.87512172     0.00830
C68         C  0.93360366  0.48812032  0.86737043     0.00830
C69         C  0.91575726  0.45481953  0.87738378     0.00830
C70         C  0.88857421  0.45492852  0.90478225     0.00830
C71         C  0.88317049  0.48698063  0.92427637     0.00830
C72         C  0.88944675  0.51984663  0.90520659     0.00830
N73         N  0.15672295  0.94731742  0.79415485    -0.07570
N74         N  0.12191786  0.93831347  0.79512131    -0.59690
N75         N  0.23432503  0.92133850  0.83277700    -0.07250
N76         N  0.24651429  0.89492194  0.85346904    -0.61820
N77         N  0.21630449  0.94502202  0.85204106    -0.06850
N78         N  0.21538843  0.93446304  0.88636217    -0.59670
N79         N  0.17492178  0.92406064  0.77464886    -0.06530
N80         N  0.15307655  0.89955864  0.76135001    -0.62170
C81         C  0.12019571  0.90867615  0.77392858     0.94600
C82         C  0.23494077  0.90336348  0.88674268     0.94380
N83         N  0.31191709  0.94490299  0.75508057    -0.07760
N84         N  0.34680558  0.94292774  0.76304327    -0.60270
N85         N  0.23259489  0.92301925  0.71398251    -0.05880
N86         N  0.21057477  0.90528467  0.69212779    -0.61520
N87         N  0.25097108  0.94759618  0.69590807    -0.07790
N88         N  0.24173892  0.94715814  0.66135619    -0.60540
N89         N  0.29376858  0.92012582  0.77303602    -0.05520
N90         N  0.31602680  0.90056998  0.79344420    -0.61610
Mn91       Mn  0.23403735  0.92106687  0.77351286     1.18440
C92         C  0.34911283  0.91467592  0.78636591     0.96690
C93         C  0.21702131  0.92017069  0.65933065     0.97350
N94         N  0.21735274  0.03214154  0.85228567    -0.07810
N95         N  0.21542444  0.04309578  0.88622837    -0.64120
N96         N  0.17704008  0.05642195  0.77485846    -0.06610
N97         N  0.15616056  0.08292909  0.76328542    -0.64790
N98         N  0.15817418  0.03315524  0.79424914    -0.07310
N99         N  0.12398375  0.04390510  0.79657871    -0.64380
N100        N  0.23623674  0.05543143  0.83297419    -0.06210
N101        N  0.24809354  0.08189371  0.85324632    -0.65070
Mn102      Mn  0.18628681  0.98933132  0.82426184     1.10660
C103        C  0.23537393  0.07395909  0.88634405     0.97910
C104        C  0.12318689  0.07477967  0.77659065     0.97990
N105        N  0.25439439  0.03127673  0.69689500    -0.07320
N106        N  0.24901874  0.03523756  0.66189306    -0.62690
N107        N  0.29567524  0.05371615  0.77421773    -0.06640
N108        N  0.31786355  0.07139108  0.79577147    -0.59420
N109        N  0.31325446  0.02861149  0.75652582    -0.07950
N110        N  0.34787042  0.02859664  0.76579739    -0.62260
N111        N  0.23688179  0.05624620  0.71468428    -0.06940
N112        N  0.21942206  0.07795329  0.69208866    -0.59450
Mn113      Mn  0.28369542  0.98802321  0.72500446     1.20190
Mn114      Mn  0.23649390  0.05640514  0.77389731     1.10090
Cl115      Cl  0.23508889  0.98872454  0.77427117    -0.87420
C116        C  0.22752053  0.06475122  0.65915554     0.94920
C117        C  0.35020671  0.05556874  0.79002116     0.94710
N118        N  0.05324007  0.13576345  0.79752420    -0.07570
N119        N  0.06441943  0.10162052  0.79798474    -0.59690
N120        N  0.07401954  0.21392378  0.83755384    -0.07250
N121        N  0.09904661  0.22758758  0.85855485    -0.61820
N122        N  0.05162915  0.19340706  0.85620923    -0.06850
N123        N  0.06190893  0.19208488  0.89055506    -0.59670
N124        N  0.07625639  0.15603696  0.77936905    -0.06530
N125        N  0.10269246  0.13637469  0.76652169    -0.62170
C126        C  0.09508945  0.10261321  0.77790170     0.94600
C127        C  0.09130715  0.21412792  0.89142857     0.94380
N128        N  0.05033782  0.29250551  0.76020486    -0.07760
N129        N  0.05495339  0.32767542  0.76374028    -0.60270
N130        N  0.07479878  0.21482469  0.72007998    -0.05880
N131        N  0.09104155  0.19180494  0.69853290    -0.61520
N132        N  0.05064737  0.23398609  0.70205600    -0.07790
N133        N  0.05030958  0.22497456  0.66781290    -0.60540
N134        N  0.07502418  0.27462062  0.77871950    -0.05520
N135        N  0.09691815  0.29729080  0.79547907    -0.61610
Mn136      Mn  0.07606869  0.21502734  0.77901527     1.18440
C137        C  0.08435743  0.33039695  0.78563678     0.96690
C138        C  0.07578995  0.19901131  0.66606994     0.97350
N139        N  0.96550061  0.19219401  0.85528693    -0.07810
N140        N  0.95522859  0.19108751  0.88948765    -0.64120
N141        N  0.94264550  0.15398911  0.77774858    -0.06610
N142        N  0.91642013  0.13403285  0.76467175    -0.64790
N143        N  0.96562403  0.13421738  0.79676217    -0.07310
N144        N  0.95446758  0.10001872  0.79766520    -0.64380
N145        N  0.94253708  0.21171524  0.83599087    -0.06210
N146        N  0.91697256  0.22486049  0.85636875    -0.65070
Mn147      Mn  0.00906623  0.16248739  0.82758116     1.10660
C148        C  0.92512825  0.21218825  0.88955196     0.97910
C149        C  0.92393619  0.10053097  0.77683217     0.97990
N150        N  0.96800584  0.23124253  0.70123866    -0.07320
N151        N  0.97003259  0.22054283  0.66750422    -0.62690
N152        N  0.94178830  0.27200346  0.77796651    -0.06640
N153        N  0.92374781  0.29297001  0.80018076    -0.59420
N154        N  0.96660805  0.29073438  0.76074404    -0.07950
N155        N  0.96625765  0.32478889  0.77104861    -0.62260
N156        N  0.94394825  0.21182339  0.71878633    -0.06940
N157        N  0.92937672  0.18722947  0.69749831    -0.59450
Mn158      Mn  0.00858166  0.26348186  0.73005525     1.20190
Mn159      Mn  0.94159080  0.21270928  0.77741032     1.10090
Cl160      Cl  0.00888389  0.21337194  0.77870720    -0.87420
C161        C  0.94612876  0.19297046  0.66573119     0.94920
C162        C  0.93906646  0.32576809  0.79519832     0.94710
N163        N  0.05712515  0.83941729  0.20638104    -0.07570
N164        N  0.06861225  0.87346882  0.20526832    -0.59690
N165        N  0.07648795  0.76141458  0.16602379    -0.07250
N166        N  0.10186137  0.74915310  0.14478449    -0.61820
N167        N  0.05351774  0.78190408  0.14767403    -0.06850
N168        N  0.06365831  0.78449973  0.11343482    -0.59670
N169        N  0.08065614  0.81917573  0.22429216    -0.06530
N170        N  0.10777747  0.83879838  0.23624705    -0.62170
C171        C  0.10004692  0.87251819  0.22462617     0.94600
C172        C  0.09365261  0.76330668  0.11213280     0.94380
N173        N  0.05250249  0.68346808  0.24462659    -0.07760
N174        N  0.05231866  0.64874256  0.23649674    -0.60270
N175        N  0.08100999  0.76026930  0.28412915    -0.05880
N176        N  0.10157680  0.78062195  0.30492801    -0.61520
N177        N  0.05643363  0.74327824  0.30337865    -0.07790
N178        N  0.05993411  0.75158421  0.33781093    -0.60540
N179        N  0.07707510  0.70071110  0.22556721    -0.05520
N180        N  0.09449407  0.67804705  0.20449059    -0.61610
Mn181      Mn  0.07968796  0.76007087  0.22503513     1.18440
C182        C  0.07909442  0.64568995  0.21198223     0.96690
C183        C  0.08856384  0.77452733  0.33841622     0.97350
N184        N  0.96659825  0.78373736  0.14950152    -0.07810
N185        N  0.95475936  0.78661943  0.11566516    -0.64120
N186        N  0.94632413  0.82187589  0.22752476    -0.06610
N187        N  0.92036456  0.84238862  0.23995779    -0.64790
N188        N  0.96926194  0.84114911  0.20818080    -0.07310
N189        N  0.95833072  0.87535834  0.20636725    -0.64380
N190        N  0.94362001  0.76451541  0.16887033    -0.06210
N191        N  0.91634345  0.75364410  0.14875362    -0.65070
Mn192      Mn  0.01164293  0.81273909  0.17698285     1.10660
C193        C  0.92355489  0.76714373  0.11568242     0.97910
C194        C  0.92802910  0.87558664  0.22698532     0.97990
N195        N  0.97151749  0.74539492  0.30574232    -0.07320
N196        N  0.96895243  0.75284326  0.34052343    -0.62690
N197        N  0.94499337  0.70330513  0.22809528    -0.06640
N198        N  0.92701101  0.68143132  0.20640019    -0.59420
N199        N  0.96936337  0.68511326  0.24687157    -0.07950
N200        N  0.96846610  0.65050536  0.23834126    -0.62260
N201        N  0.94650911  0.76301747  0.28735362    -0.06940
N202        N  0.92655526  0.78270752  0.30907734    -0.59450
Mn203      Mn  0.01246359  0.71340960  0.27651866     1.20190
Mn204      Mn  0.94450161  0.76284705  0.22807047     1.10090
Cl205      Cl  0.01207898  0.76255592  0.22647015    -0.87420
C206        C  0.94047524  0.77611865  0.34230431     0.94920
C207        C  0.94171747  0.64855776  0.21336701     0.94710
N208        N  0.31244354  0.74310583  0.04641107    -0.07570
N209        N  0.34723282  0.75114322  0.04916896    -0.59690
N210        N  0.23302356  0.70260322  0.06792334    -0.07250
N211        N  0.21038728  0.68095268  0.08513136    -0.61820
N212        N  0.25198854  0.68443342  0.04432160    -0.06850
N213        N  0.24276623  0.64989204  0.04510459    -0.59670
N214        N  0.29372254  0.76100315  0.07039404    -0.06530
N215        N  0.31523797  0.78167250  0.08986918    -0.62170
C216        C  0.34853931  0.77465172  0.07687161     0.94600
C217        C  0.21720093  0.64815233  0.07102818     0.94380
N218        N  0.15688352  0.78361225  0.04398942    -0.07760
N219        N  0.12247332  0.78541543  0.05426268    -0.60270
N220        N  0.23504218  0.82084290  0.06914585    -0.05880
N221        N  0.24759913  0.84054785  0.09569280    -0.61520
N222        N  0.21692928  0.84099080  0.04569935    -0.07790
N223        N  0.21628271  0.87508754  0.05668551    -0.60540
N224        N  0.17554463  0.76345574  0.06694423    -0.05520
N225        N  0.15453341  0.75055331  0.09233470    -0.61610
Mn226      Mn  0.23445688  0.76179838  0.06943654     1.18440
C227        C  0.12158255  0.76399361  0.08427482     0.96690
C228        C  0.23615380  0.87423524  0.08771411     0.97350
N229        N  0.25348064  0.68526574  0.96140108    -0.07810
N230        N  0.24376442  0.65085021  0.96115957    -0.64120
N231        N  0.29668477  0.76311316  0.93755341    -0.06610
N232        N  0.31904126  0.78459138  0.91966125    -0.64790
N233        N  0.31444894  0.74459529  0.96244560    -0.07310
N234        N  0.34933361  0.75302890  0.96185838    -0.64380
N235        N  0.23513979  0.70371214  0.93688662    -0.06210
N236        N  0.21240982  0.68221209  0.91957127    -0.65070
Mn237      Mn  0.28441072  0.71325684  0.00356547     1.10660
C238        C  0.21849257  0.64929675  0.93467919     0.97910
C239        C  0.35185218  0.77757115  0.93462044     0.97990
N240        N  0.21791756  0.84202147  0.95811960    -0.07320
N241        N  0.21577371  0.87599611  0.94625666    -0.62690
N242        N  0.17753469  0.76533819  0.93453266    -0.06640
N243        N  0.15714839  0.75431610  0.90763783    -0.59420
N244        N  0.15836065  0.78464676  0.95721124    -0.07950
N245        N  0.12437771  0.78752211  0.94548100    -0.62260
N246        N  0.23702510  0.82256697  0.93548854    -0.06940
N247        N  0.24876242  0.84274692  0.90868575    -0.59450
Mn248      Mn  0.18653740  0.81398720  0.00127986     1.20190
Mn249      Mn  0.23686263  0.76338627  0.93517635     1.10090
Cl250      Cl  0.23553191  0.76332465  0.00233183    -0.87420
C251        C  0.23578380  0.87594801  0.91561832     0.94920
C252        C  0.12411730  0.76787712  0.91473065     0.94710
N253        N  0.05473187  0.22675497  0.29936146    -0.07570
N254        N  0.05457298  0.21684214  0.33362681    -0.59690
N255        N  0.07975015  0.26831898  0.22205404    -0.07250
N256        N  0.09875140  0.28986195  0.20079207    -0.61820
N257        N  0.05562817  0.28689862  0.24001982    -0.06850
N258        N  0.05781867  0.32162073  0.23148563    -0.59670
N259        N  0.07854992  0.20777618  0.28147152    -0.06530
N260        N  0.09494492  0.18424039  0.30304031    -0.62170
C261        C  0.07982800  0.19047117  0.33543227     0.94600
C262        C  0.08499647  0.32302358  0.20714279     0.94380
N263        N  0.05485767  0.19015736  0.14471976    -0.07760
N264        N  0.06522085  0.18963636  0.11052873    -0.60270
N265        N  0.07729848  0.15020124  0.22250675    -0.05880
N266        N  0.10291938  0.12952374  0.23598374    -0.61520
N267        N  0.05423902  0.13110402  0.20326156    -0.07790
N268        N  0.06474331  0.09673862  0.20257113    -0.60540
N269        N  0.07812079  0.20892232  0.16406824    -0.05520
N270        N  0.10394996  0.22206915  0.14374469    -0.61610
Mn271      Mn  0.07942278  0.20899256  0.22265335     1.18440
C272        C  0.09566105  0.21027986  0.11053670     0.96690
C273        C  0.09495711  0.09635724  0.22376545     0.97350
N274        N  0.97159400  0.28765846  0.24004365    -0.07810
N275        N  0.97037154  0.32253261  0.23210643    -0.64120
N276        N  0.94713568  0.20821961  0.28051993    -0.06610
N277        N  0.93124326  0.18381083  0.30132800    -0.64790
N278        N  0.97185413  0.22615205  0.29872261    -0.07310
N279        N  0.97303478  0.21451283  0.33246500    -0.64380
N280        N  0.94621818  0.27016327  0.22234803    -0.06210
N281        N  0.92687206  0.29277065  0.20225518    -0.65070
Mn282      Mn  0.01336466  0.25824601  0.27063261     1.10660
C283        C  0.94201868  0.32529787  0.20895473     0.97910
C284        C  0.94785628  0.18795713  0.33351940     0.97990
N285        N  0.96708972  0.13226348  0.20260292    -0.07320
N286        N  0.95594261  0.09811389  0.20217576    -0.62690
N287        N  0.94541912  0.21106968  0.16296772    -0.06640
N288        N  0.91927062  0.22381961  0.14236092    -0.59420
N289        N  0.96798243  0.19131458  0.14404946    -0.07950
N290        N  0.95681581  0.18975265  0.10999374    -0.62260
N291        N  0.94427369  0.15203555  0.22109483    -0.06940
N292        N  0.91799571  0.13208076  0.23418471    -0.59450
Mn293      Mn  0.01106243  0.15993280  0.17242466     1.20190
Mn294      Mn  0.94469806  0.21081486  0.22183233     1.10090
Cl295      Cl  0.01211901  0.20946585  0.22141232    -0.87420
C296        C  0.92549321  0.09860615  0.22262476     0.94920
C297        C  0.92662721  0.21075368  0.10946103     0.94710
N298        N  0.26163392  0.94786179  0.30458973    -0.07570
N299        N  0.25725378  0.94593343  0.33974914    -0.59690
N300        N  0.30137004  0.92435097  0.22718486    -0.07250
N301        N  0.32370364  0.90667010  0.20590792    -0.61820
N302        N  0.31873828  0.95051599  0.24381463    -0.06850
N303        N  0.35307942  0.95137408  0.23394659    -0.59670
N304        N  0.24316895  0.92224030  0.28844588    -0.06530
N305        N  0.22570060  0.90233379  0.31274198    -0.62170
C306        C  0.23500697  0.91740806  0.34482549     0.94600
C307        C  0.35588280  0.92352134  0.21080838     0.94380
N308        N  0.22018590  0.94399531  0.14956290    -0.07760
N309        N  0.21755059  0.93298248  0.11569134    -0.60270
N310        N  0.18175026  0.91998351  0.22753420    -0.05880
N311        N  0.16137750  0.89312725  0.23906649    -0.61520
N312        N  0.16228242  0.94282738  0.20785242    -0.07790
N313        N  0.12825579  0.93143082  0.20545414    -0.60540
N314        N  0.23955243  0.92083829  0.16891036    -0.05520
N315        N  0.25093320  0.89429594  0.14856013    -0.61610
Mn316      Mn  0.24150419  0.92070741  0.22839137     1.18440
C317        C  0.23745356  0.90217250  0.11549250     0.96690
C318        C  0.12811627  0.90061746  0.22556012     0.97350
N319        N  0.31558530  0.03433676  0.24394794    -0.07810
N320        N  0.35032153  0.03784468  0.23626723    -0.64120
N321        N  0.23694149  0.05557782  0.28433922    -0.06610
N322        N  0.21456131  0.07322530  0.30550174    -0.64790
N323        N  0.25604591  0.03177539  0.30291895    -0.07310
N324        N  0.24692235  0.03270252  0.33726752    -0.64380
N325        N  0.29620613  0.05786389  0.22540270    -0.06210
N326        N  0.31719472  0.07770179  0.20443035    -0.65070
Mn327      Mn  0.28908058  0.99112765  0.27483866     1.10660
C328        C  0.35089098  0.06539742  0.21202253     0.97910
C329        C  0.22127607  0.05883873  0.33842566     0.97990
N330        N  0.15947683  0.02914078  0.20601184    -0.07320
N331        N  0.12476911  0.03856604  0.20427806    -0.62690
N332        N  0.23641032  0.05499923  0.16687715    -0.06640
N333        N  0.24836158  0.08141206  0.14631863    -0.59420
N334        N  0.21810061  0.03127273  0.14777166    -0.07950
N335        N  0.21663067  0.04199232  0.11344949    -0.62260
N336        N  0.17794153  0.05281575  0.22497248    -0.06940
N337        N  0.15641591  0.07797990  0.23722512    -0.59450
Mn338      Mn  0.18912802  0.98678333  0.17676131     1.20190
Mn339      Mn  0.23697490  0.05611808  0.22551321     1.10090
Cl340      Cl  0.23906489  0.98856186  0.22632589    -0.87420
C341        C  0.12341675  0.06890474  0.22452329     0.94920
C342        C  0.23628971  0.07314110  0.11313458     0.94710
N343        N  0.21821148  0.13536663  0.04272455    -0.07570
N344        N  0.21659193  0.10120293  0.05398718    -0.59690
N345        N  0.17731971  0.21227782  0.06528312    -0.07250
N346        N  0.15640644  0.22462374  0.09081722    -0.61820
N347        N  0.15846407  0.19242903  0.04261521    -0.06850
N348        N  0.12417305  0.19042439  0.05291883    -0.59670
N349        N  0.23705266  0.15490367  0.06578458    -0.06530
N350        N  0.24915703  0.13443976  0.09240066    -0.62170
C351        C  0.23663265  0.10109052  0.08478994     0.94600
C352        C  0.12342160  0.21119977  0.08280944     0.94380
N353        N  0.25261652  0.29236333  0.03930016    -0.07760
N354        N  0.24352054  0.32693141  0.03974031    -0.60270
N355        N  0.29602791  0.21599710  0.06471521    -0.05880
N356        N  0.31891559  0.19604085  0.08389208    -0.61520
N357        N  0.31327130  0.23380633  0.03921784    -0.07790
N358        N  0.34821374  0.22616600  0.04034727    -0.60540
N359        N  0.23458513  0.27419344  0.06399481    -0.05520
N360        N  0.21273823  0.29604638  0.08169631    -0.61610
Mn361      Mn  0.23645497  0.21452280  0.06603624     1.18440
C362        C  0.21896031  0.32888138  0.06652864     0.96690
C363        C  0.35140119  0.20312224  0.06874823     0.97350
N364        N  0.15636755  0.19304200  0.95742766    -0.07810
N365        N  0.12156260  0.19194026  0.94826546    -0.64120
N366        N  0.23390103  0.15575761  0.93195911    -0.06610
N367        N  0.24593489  0.13579577  0.90552633    -0.64790
N368        N  0.21630575  0.13573351  0.95564248    -0.07310
N369        N  0.21544595  0.10153792  0.94500115    -0.64380
N370        N  0.17439932  0.21327386  0.93436647    -0.06210
N371        N  0.15256440  0.22695994  0.90985069    -0.65070
Mn372      Mn  0.18645583  0.16286148  0.99960312     1.10660
C373        C  0.11979134  0.21384845  0.91873141     0.97910
C374        C  0.23468485  0.10212315  0.91389377     0.97990
N375        N  0.31127821  0.23319697  0.95509927    -0.07320
N376        N  0.34583362  0.22382652  0.95358234    -0.62690
N377        N  0.23080342  0.27432363  0.93304287    -0.06640
N378        N  0.20627859  0.29562718  0.91759218    -0.59420
N379        N  0.25002682  0.29239552  0.95674052    -0.07950
N380        N  0.23910214  0.32637727  0.95780398    -0.62260
N381        N  0.29242102  0.21551022  0.93078861    -0.06940
N382        N  0.31358075  0.19373957  0.91232570    -0.59450
Mn383      Mn  0.28317358  0.26393535  0.99742241     1.20190
Mn384      Mn  0.23309436  0.21499650  0.93148611     1.10090
Cl385      Cl  0.23493426  0.21355652  0.99876550    -0.87420
C386        C  0.34680394  0.19927367  0.92671586     0.94920
C387        C  0.21175701  0.32800520  0.93338679     0.94710
N388        N  0.76388172  0.02620930  0.30236475    -0.07570
N389        N  0.76884558  0.02853983  0.33748632    -0.59690
N390        N  0.72411363  0.05069191  0.22398475    -0.07250
N391        N  0.70206794  0.06902003  0.20233119    -0.61820
N392        N  0.70612521  0.02554801  0.24168169    -0.06850
N393        N  0.67143258  0.02638949  0.23267934    -0.59670
N394        N  0.78239747  0.05142367  0.28537179    -0.06530
N395        N  0.80034914  0.07156580  0.30880016    -0.62170
C396        C  0.79153510  0.05694131  0.34126139     0.94600
C397        C  0.66932159  0.05386381  0.20846144     0.94380
N398        N  0.80415405  0.02968741  0.14763793    -0.07760
N399        N  0.80559773  0.04054546  0.11343003    -0.60270
N400        N  0.84342389  0.05247599  0.22558097    -0.05880
N401        N  0.86428822  0.07880333  0.23709418    -0.61520
N402        N  0.86246191  0.02944397  0.20647261    -0.07790
N403        N  0.89666648  0.04019878  0.20429301    -0.60540
N404        N  0.78504866  0.05272019  0.16661103    -0.05520
N405        N  0.77257488  0.07891461  0.14584561    -0.61610
Mn406      Mn  0.78375228  0.05291092  0.22571430     1.18440
C407        C  0.78516116  0.07108123  0.11282438     0.96690
C408        C  0.89736128  0.07079082  0.22405856     0.97350
N409        N  0.70753291  0.94209393  0.24148202    -0.07810
N410        N  0.67334978  0.94196538  0.23066188    -0.64120
N411        N  0.78607960  0.91871520  0.28537719    -0.06610
N412        N  0.80861380  0.90185982  0.30782965    -0.64790
N413        N  0.76634432  0.94226161  0.30287887    -0.07310
N414        N  0.77470512  0.94149369  0.33761354    -0.64380
N415        N  0.72633260  0.91801727  0.22372315    -0.06210
N416        N  0.70532393  0.90114393  0.20025767    -0.65070
Mn417      Mn  0.73491876  0.98383267  0.27313707     1.10660
C418        C  0.67234071  0.91630350  0.20496689     0.97910
C419        C  0.80081639  0.91585244  0.34050142     0.97990
N420        N  0.86386833  0.94324761  0.20657815    -0.07320
N421        N  0.89845256  0.93338150  0.20554579    -0.62690
N422        N  0.78681792  0.91903362  0.16672125    -0.06640
N423        N  0.77381136  0.89357115  0.14591965    -0.59420
N424        N  0.80513360  0.94289712  0.14757289    -0.07950
N425        N  0.80549860  0.93340700  0.11311023    -0.62260
N426        N  0.84513289  0.91984790  0.22589072    -0.06940
N427        N  0.86635320  0.89433985  0.23887281    -0.59450
Mn428      Mn  0.83487203  0.98631534  0.17598537     1.20190
Mn429      Mn  0.78596028  0.91781043  0.22578675     1.10090
Cl430      Cl  0.78519912  0.98534142  0.22506468    -0.87420
C431        C  0.89946448  0.90302129  0.22641575     0.94920
C432        C  0.78520238  0.90277049  0.11264056     0.94710
N433        N  0.70676277  0.23038853  0.04079482    -0.07570
N434        N  0.67198438  0.22195518  0.04234007    -0.59690
N435        N  0.78582827  0.27159968  0.06432349    -0.07250
N436        N  0.80802939  0.29347502  0.08180512    -0.61820
N437        N  0.76676026  0.28985181  0.04024563    -0.06850
N438        N  0.77533253  0.32453106  0.04097225    -0.59670
N439        N  0.72521193  0.21188589  0.06516481    -0.06530
N440        N  0.70351436  0.19021490  0.08355179    -0.62170
C441        C  0.67037384  0.19728398  0.06949345     0.94600
C442        C  0.80098115  0.32639582  0.06708447     0.94380
N443        N  0.86237951  0.19102769  0.04200928    -0.07760
N444        N  0.89694155  0.18958657  0.05212929    -0.60270
N445        N  0.78459441  0.15274198  0.06564762    -0.05880
N446        N  0.77269940  0.13238015  0.09222277    -0.61520
N447        N  0.80295047  0.13324382  0.04248568    -0.07790
N448        N  0.80455020  0.09905116  0.05371677    -0.60540
N449        N  0.84375493  0.21064291  0.06480134    -0.05520
N450        N  0.86499046  0.22338475  0.09017499    -0.61610
Mn451      Mn  0.78469667  0.21195337  0.06598044     1.18440
C452        C  0.89801678  0.21048483  0.08201468     0.96690
C453        C  0.78490333  0.09904517  0.08456289     0.97350
N454        N  0.76615801  0.29041463  0.95710941    -0.07810
N455        N  0.77489044  0.32504631  0.95614183    -0.64120
N456        N  0.72485856  0.21404099  0.93185685    -0.06610
N457        N  0.70282631  0.19405772  0.91227146    -0.64790
N458        N  0.70682517  0.23125798  0.95685583    -0.07310
N459        N  0.67207909  0.22308716  0.95507721    -0.64380
N460        N  0.78451047  0.27252651  0.93282921    -0.06210
N461        N  0.80608925  0.29457372  0.91481189    -0.65070
Mn462      Mn  0.73534856  0.26152376  0.99882064     1.10660
C463        C  0.79968736  0.32724321  0.92953961     0.97910
C464        C  0.67005744  0.20042233  0.92678029     0.97990
N465        N  0.80257392  0.13394638  0.95498543    -0.07320
N466        N  0.80413576  0.09998920  0.94358934    -0.62690
N467        N  0.84296099  0.21189155  0.93347016    -0.06640
N468        N  0.86407049  0.22516393  0.90835795    -0.59420
N469        N  0.86174718  0.19193618  0.95648078    -0.07950
N470        N  0.89625172  0.19075018  0.94680211    -0.62260
N471        N  0.78393065  0.15391816  0.93177835    -0.06940
N472        N  0.77190953  0.13412834  0.90502502    -0.59450
Mn473      Mn  0.83331205  0.16128871  0.99898407     1.20190
Mn474      Mn  0.78396414  0.21323644  0.93153175     1.10090
Cl475      Cl  0.78429907  0.21179162  0.99881734    -0.87420
C476        C  0.78424292  0.10061493  0.91257270     0.94920
C477        C  0.89712864  0.21219501  0.91695516     0.94710
N478        N  0.04927325  0.75006956  0.69699529    -0.07570
N479        N  0.04964185  0.75767927  0.66208118    -0.59690
N480        N  0.07779120  0.71064708  0.77433555    -0.07250
N481        N  0.09815790  0.69018748  0.79559670    -0.61820
N482        N  0.05275464  0.69127444  0.75811657    -0.06850
N483        N  0.05542565  0.65702534  0.76835594    -0.59670
N484        N  0.07361972  0.76950473  0.71408702    -0.06530
N485        N  0.09101288  0.79084192  0.69123095    -0.62170
C486        C  0.07608929  0.78282117  0.65886264     0.94600
C487        C  0.08421235  0.65684176  0.79125425     0.94380
N488        N  0.05418479  0.78792926  0.85231670    -0.07760
N489        N  0.06524880  0.78869082  0.88645205    -0.60270
N490        N  0.07332700  0.82808204  0.77324690    -0.05880
N491        N  0.09861603  0.84903648  0.75994263    -0.61520
N492        N  0.05104007  0.84661925  0.79356675    -0.07790
N493        N  0.06176125  0.88086509  0.79512872    -0.60540
N494        N  0.07764392  0.77010287  0.83259985    -0.05520
N495        N  0.10442932  0.75784792  0.85278034    -0.61610
Mn496      Mn  0.07647797  0.76953829  0.77334579     1.18440
C497        C  0.09644433  0.76922872  0.88620154     0.96690
C498        C  0.09126027  0.88180116  0.77338645     0.97350
N499        N  0.96803443  0.68875429  0.75906328    -0.07810
N500        N  0.96658090  0.65385591  0.76705829    -0.64120
N501        N  0.94089435  0.76634118  0.71784210    -0.06610
N502        N  0.92212333  0.78852903  0.69675757    -0.64790
N503        N  0.96550299  0.74903395  0.69921045    -0.07310
N504        N  0.96405465  0.75934559  0.66497796    -0.64380
N505        N  0.94340717  0.70648900  0.77722305    -0.06210
N506        N  0.92468009  0.68422341  0.79792435    -0.65070
Mn507      Mn  0.00887391  0.71840271  0.72724588     1.10660
C508        C  0.93925388  0.65150003  0.79116750     0.97910
C509        C  0.93635613  0.78336423  0.66379094     0.97990
N510        N  0.96460342  0.84424692  0.79529588    -0.07320
N511        N  0.95397241  0.87852449  0.79526522    -0.62690
N512        N  0.94387293  0.76607661  0.83583938    -0.06640
N513        N  0.91821133  0.75333294  0.85671452    -0.59420
N514        N  0.96684099  0.78590316  0.85450417    -0.07950
N515        N  0.95631826  0.78758422  0.88868232    -0.62260
N516        N  0.94145724  0.82445971  0.77689923    -0.06940
N517        N  0.91538411  0.84459313  0.76339547    -0.59450
Mn518      Mn  0.00917361  0.81723531  0.82512821     1.20190
Mn519      Mn  0.94150594  0.76559115  0.77689893     1.10090
Cl520      Cl  0.00901478  0.76762782  0.77584447    -0.87420
C521        C  0.92343714  0.87811886  0.77465238     0.94920
C522        C  0.92614851  0.76648201  0.88954140     0.94710
N523        N  0.85978002  0.03186915  0.79250229    -0.07570
N524        N  0.89416198  0.04208722  0.79536963    -0.59690
N525        N  0.78228759  0.05505992  0.83060087    -0.07250
N526        N  0.77103821  0.08151982  0.85110332    -0.61820
N527        N  0.80077480  0.03119137  0.84987462    -0.06850
N528        N  0.80306644  0.04174110  0.88398416    -0.59670
N529        N  0.84126079  0.05547603  0.77290554    -0.06530
N530        N  0.86258705  0.08162806  0.76167774    -0.62170
C531        C  0.89545422  0.07298194  0.77543744     0.94600
C532        C  0.78373400  0.07300049  0.88427950     0.94380
N533        N  0.70401700  0.03080957  0.75251957    -0.07760
N534        N  0.66922088  0.03223624  0.76071129    -0.60270
N535        N  0.78081790  0.05765083  0.71164327    -0.05880
N536        N  0.79657867  0.08083192  0.68942154    -0.61520
N537        N  0.76267797  0.03337012  0.69326433    -0.07790
N538        N  0.76593415  0.03931634  0.65822386    -0.60540
N539        N  0.72227688  0.05498932  0.77105970    -0.05520
N540        N  0.70046383  0.07308361  0.79236287    -0.61610
Mn541      Mn  0.78169301  0.05663657  0.77128976     1.18440
C542        C  0.66740677  0.05910116  0.78524741     0.96690
C543        C  0.78686662  0.06930390  0.65609244     0.97350
N544        N  0.80045142  0.94371143  0.84852186    -0.07810
N545        N  0.80237522  0.93226177  0.88253553    -0.64120
N546        N  0.84141067  0.92315811  0.77155500    -0.06610
N547        N  0.86272422  0.89774756  0.75938383    -0.64790
N548        N  0.85985643  0.94600550  0.79154231    -0.07310
N549        N  0.89428294  0.93588561  0.79388528    -0.64380
N550        N  0.78225310  0.92027495  0.82882397    -0.06210
N551        N  0.77108515  0.89306395  0.84900248    -0.65070
Mn552      Mn  0.83094437  0.98813899  0.82163234     1.10660
C553        C  0.78336967  0.90084443  0.88239741     0.97910
C554        C  0.89553922  0.90596190  0.77310276     0.97990
N555        N  0.76603355  0.94972829  0.69182503    -0.07320
N556        N  0.77665346  0.95104998  0.65780154    -0.62690
N557        N  0.72267936  0.92099274  0.76783388    -0.06640
N558        N  0.70031843  0.90113009  0.78754385    -0.59420
N559        N  0.70468773  0.94624156  0.75009420    -0.07950
N560        N  0.66977200  0.94418442  0.75750748    -0.62260
N561        N  0.78440130  0.92485417  0.70981914    -0.06940
N562        N  0.80788748  0.90884462  0.68841258    -0.59450
Mn563      Mn  0.73321662  0.98984332  0.72089137     1.20190
Mn564      Mn  0.78239027  0.92129263  0.76932796     1.10090
Cl565      Cl  0.78202257  0.98901253  0.77096109    -0.87420
C566        C  0.80236244  0.92502882  0.65597546     0.94920
C567        C  0.66729190  0.91556914  0.78043108     0.94710
N568        N  0.80061446  0.84204410  0.04186264    -0.07570
N569        N  0.80334048  0.87593288  0.05318289    -0.59690
N570        N  0.84139232  0.76646070  0.06855796    -0.07250
N571        N  0.86179475  0.75503323  0.09549947    -0.61820
N572        N  0.86073815  0.78519480  0.04518929    -0.06850
N573        N  0.89492885  0.78733796  0.05654656    -0.59670
N574        N  0.78101928  0.82287980  0.06470955    -0.06530
N575        N  0.76944069  0.84322379  0.09101539    -0.62170
C576        C  0.78312392  0.87617519  0.08366477     0.94600
C577        C  0.89504923  0.76779740  0.08780644     0.94380
N578        N  0.76716841  0.68525370  0.04469159    -0.07760
N579        N  0.77619802  0.65082463  0.04827140    -0.60270
N580        N  0.72263547  0.76123368  0.06568736    -0.05880
N581        N  0.69923396  0.77981089  0.08489872    -0.61520
N582        N  0.70566404  0.74204560  0.04116887    -0.07790
N583        N  0.67034920  0.74731462  0.04298253    -0.60540
N584        N  0.78419711  0.70472135  0.06896019    -0.05520
N585        N  0.80512638  0.68408239  0.08953580    -0.61610
Mn586      Mn  0.78210241  0.76383223  0.06769293     1.18440
C587        C  0.79928108  0.65051388  0.07679263     0.96690
C588        C  0.66674279  0.77052718  0.07070755     0.97350
N589        N  0.86255722  0.78335426  0.95806554    -0.07810
N590        N  0.89679131  0.78647742  0.94748242    -0.64120
N591        N  0.78418184  0.81964833  0.93131466    -0.06610
N592        N  0.77237839  0.83913142  0.90380631    -0.64790
N593        N  0.80205921  0.84000761  0.95438865    -0.07310
N594        N  0.80315441  0.87393716  0.94228170    -0.64380
N595        N  0.84432845  0.76290793  0.93537495    -0.06210
N596        N  0.86562137  0.75117564  0.90982408    -0.65070
Mn597      Mn  0.83242974  0.81370410  0.99986282     1.10660
C598        C  0.89822539  0.76560912  0.91755947     0.97910
C599        C  0.78394047  0.87288338  0.91089276     0.97990
N600        N  0.70692307  0.74095365  0.95693799    -0.07320
N601        N  0.67198109  0.74896589  0.95438229    -0.62690
N602        N  0.78731412  0.70088508  0.93656688    -0.06640
N603        N  0.80963078  0.67902560  0.91954359    -0.59420
N604        N  0.76907701  0.68291185  0.96123529    -0.07950
N605        N  0.77862785  0.64843613  0.96159553    -0.62260
N606        N  0.72530554  0.75910959  0.93248663    -0.06940
N607        N  0.70335472  0.77988845  0.91304996    -0.59450
Mn608      Mn  0.73607124  0.71168579  0.00084784     1.20190
Mn609      Mn  0.78507253  0.76036394  0.93307412     1.10090
Cl610      Cl  0.78393171  0.76258695  0.00037028    -0.87420
C611        C  0.67003374  0.77293491  0.92647533     0.94920
C612        C  0.80354560  0.64639763  0.93513511     0.94710
C613        C  0.91746674  0.55436110  0.85246576    -0.07580
C614        C  0.92677613  0.58687354  0.86959895    -0.18700
C615        C  0.93282326  0.61891068  0.85056523     0.09620
C616        C  0.93130100  0.61878181  0.81260162    -0.07500
C617        C  0.92284850  0.58658784  0.79483412    -0.18740
C618        C  0.91529534  0.55458843  0.81425236     0.09650
S619        S  0.94408684  0.65834354  0.87678104    -0.33700
S620        S  0.90274727  0.51475253  0.78963056    -0.33710
H621        H  0.90606452  0.52950930  0.75470135     0.27660
H622        H  0.96849682  0.67352579  0.85198434     0.27660
H623        H  0.93244220  0.58690588  0.89791164     0.18250
H624        H  0.92168176  0.58678422  0.76564250     0.18260
C625        C  0.86778612  0.55231515  0.91396701    -0.07580
C626        C  0.83639571  0.55931820  0.89347451    -0.18700
C627        C  0.81497924  0.58977882  0.89978708     0.09620
C628        C  0.82492987  0.61380220  0.92744037    -0.07500
C629        C  0.85642557  0.60695312  0.94791195    -0.18740
C630        C  0.87814180  0.57664186  0.94119736     0.09650
S631        S  0.77503892  0.59595850  0.87203576    -0.33700
S632        S  0.92012916  0.57204748  0.96606807    -0.33710
H633        H  0.93339066  0.53956180  0.95216538     0.27660
H634        H  0.77436943  0.63391697  0.87291640     0.27660
H635        H  0.82887575  0.54127732  0.87185956     0.18250
H636        H  0.86448307  0.62568530  0.96880586     0.18260
C637        C  0.93201138  0.35677048  0.81828329    -0.07580
C638        C  0.90260275  0.37906769  0.80973618    -0.18700
C639        C  0.89651633  0.41101464  0.82853646     0.09620
C640        C  0.92088479  0.42119942  0.85646681    -0.07500
C641        C  0.94878683  0.39718598  0.86670558    -0.18740
C642        C  0.95488124  0.36532999  0.84764641     0.09650
S643        S  0.85651057  0.43623943  0.81561103    -0.33700
S644        S  0.99333406  0.33793587  0.86086489    -0.33710
H645        H  0.97877468  0.30462596  0.84997808     0.27660
H646        H  0.86421235  0.46810553  0.83399658     0.27660
H647        H  0.88458116  0.37183894  0.78772701     0.18250
H648        H  0.96649404  0.40389011  0.88912846     0.18260
C649        C  0.86496395  0.42248401  0.91251966    -0.07580
C650        C  0.88114512  0.38863877  0.91929524    -0.18700
C651        C  0.86066767  0.35723703  0.92379700     0.09620
C652        C  0.82250837  0.35936607  0.92340799    -0.07500
C653        C  0.80588929  0.39314922  0.91892952    -0.18740
C654        C  0.82642434  0.42447495  0.91276729     0.09650
S655        S  0.88516742  0.31562392  0.93155145    -0.33700
S656        S  0.80114744  0.46554818  0.90492480    -0.33710
H657        H  0.82428693  0.47892469  0.87828327     0.27660
H658        H  0.86243450  0.30323764  0.95939032     0.27660
H659        H  0.91014890  0.38641650  0.92192662     0.18250
H660        H  0.77655375  0.39498833  0.91920043     0.18260
C661        C  0.92285504  0.55273270  0.15078736    -0.07580
C662        C  0.94176665  0.58214476  0.13616212    -0.18700
C663        C  0.94652856  0.61425411  0.15529531     0.09620
C664        C  0.93498718  0.61620089  0.19139316    -0.07500
C665        C  0.91906582  0.58575878  0.20744061    -0.18740
C666        C  0.91223266  0.55451233  0.18737111     0.09650
S667        S  0.96850867  0.65152475  0.13272052    -0.33700
S668        S  0.88930683  0.51805233  0.20971865    -0.33710
H669        H  0.85915022  0.52149358  0.18660244     0.27660
H670        H  0.93966813  0.67560408  0.13842656     0.27660
H671        H  0.95308847  0.58011324  0.10972716     0.18250
H672        H  0.91094490  0.58670004  0.23546240     0.18260
C673        C  0.82241176  0.61959278  0.08615754    -0.07580
C674        C  0.85529763  0.61624180  0.06792178    -0.18700
C675        C  0.87699368  0.58556344  0.07250828     0.09620
C676        C  0.86539600  0.55726564  0.09549054    -0.07500
C677        C  0.83375761  0.56204720  0.11585027    -0.18740
C678        C  0.81206389  0.59283234  0.11132386     0.09650
S679        S  0.91923727  0.58513592  0.04894811    -0.33700
S680        S  0.77108579  0.59571427  0.13737130    -0.33710
H681        H  0.76888193  0.63366641  0.13749886     0.27660
H682        H  0.92466280  0.54757290  0.04923256     0.27660
H683        H  0.86374637  0.63739056  0.04931363     0.18250
H684        H  0.82533076  0.54121305  0.13467725     0.18260
C685        C  0.91654648  0.42234965  0.14964896    -0.07580
C686        C  0.94886112  0.40360079  0.14308707    -0.18700
C687        C  0.95748353  0.37184400  0.16188460     0.09620
C688        C  0.93350626  0.35810314  0.18799855    -0.07500
C689        C  0.90072279  0.37580024  0.19398457    -0.18740
C690        C  0.89198179  0.40781163  0.17544656     0.09650
S691        S  0.99895441  0.34944160  0.15042075    -0.33700
S692        S  0.84902976  0.42783578  0.18666899    -0.33710
H693        H  0.85608267  0.46187630  0.17212530     0.27660
H694        H  0.98628754  0.31394537  0.15580622     0.27660
H695        H  0.96703788  0.41291430  0.12223663     0.18250
H696        H  0.88203171  0.36489623  0.21374996     0.18260
C697        C  0.82148347  0.35961424  0.07531003    -0.07580
C698        C  0.80216197  0.39071877  0.08443908    -0.18700
C699        C  0.81996781  0.42266580  0.09418414     0.09620
C700        C  0.85846229  0.42429406  0.09336192    -0.07500
C701        C  0.87757882  0.39317053  0.08291382    -0.18740
C702        C  0.85967863  0.36103334  0.07415955     0.09650
S703        S  0.79111713  0.45879091  0.10927802    -0.33700
S704        S  0.88711984  0.32331156  0.06035295    -0.33710
H705        H  0.86251984  0.31069332  0.03418030     0.27660
H706        H  0.81734351  0.47870797  0.12772911     0.27660
H707        H  0.77279900  0.38968705  0.08529996     0.18250
H708        H  0.90683746  0.39400543  0.08095388     0.18260
C709        C  0.86890751  0.48801628  0.04219683    -0.07580
C710        C  0.89264623  0.46400028  0.02501197    -0.18700
C711        C  0.89763852  0.46342618  0.98767749     0.09620
C712        C  0.87579259  0.48521042  0.96462022    -0.07500
C713        C  0.84854451  0.50604797  0.98106061    -0.18740
C714        C  0.84517921  0.50828752  0.01906195     0.09650
S715        S  0.93579688  0.43771540  0.97147535    -0.33700
S716        S  0.80797348  0.53519720  0.03454205    -0.33710
H717        H  0.80493754  0.51726048  0.06758319     0.27660
H718        H  0.93585627  0.41165971  0.99945413     0.27660
H719        H  0.90969789  0.44660904  0.04119740     0.18250
H720        H  0.82948996  0.52089276  0.96429016     0.18260
C721        C  0.09584741  0.55390403  0.14401878    -0.07580
C722        C  0.12298105  0.56439686  0.16862931    -0.18700
C723        C  0.11817994  0.59388011  0.19149383     0.09620
C724        C  0.08522531  0.61310952  0.19037681    -0.07500
C725        C  0.05806907  0.60272216  0.16600551    -0.18740
C726        C  0.06324780  0.57403180  0.14222114     0.09650
S727        S  0.15485447  0.60523156  0.22173611    -0.33700
S728        S  0.02766010  0.56623570  0.10973456    -0.33710
H729        H  0.04646009  0.54268011  0.08728376     0.27660
H730        H  0.13320070  0.62006437  0.24892175     0.27660
H731        H  0.14796912  0.54904036  0.17044242     0.18250
H732        H  0.03303985  0.61797566  0.16468528     0.18260
C733        C  0.15041977  0.55444366  0.08661801    -0.07580
C734        C  0.18538650  0.55579569  0.10187860    -0.18700
C735        C  0.20764586  0.58608609  0.09757737     0.09620
C736        C  0.19462902  0.61617653  0.07793364    -0.07500
C737        C  0.15940361  0.61552298  0.06351008    -0.18740
C738        C  0.13731614  0.58494080  0.06739885     0.09650
S739        S  0.25217312  0.58469607  0.11796607    -0.33700
S740        S  0.09300352  0.58681693  0.04727606    -0.33710
H741        H  0.09079019  0.54971474  0.03978956     0.27660
H742        H  0.25522661  0.62206546  0.12394970     0.27660
H743        H  0.19546736  0.53310446  0.11755173     0.18250
H744        H  0.14932911  0.63875131  0.04842055     0.18260
C745        C  0.10329863  0.42180957  0.14819523    -0.07580
C746        C  0.09158597  0.39060374  0.13027126    -0.18700
C747        C  0.08961043  0.35724465  0.14818334     0.09620
C748        C  0.09399519  0.35574632  0.18600681    -0.07500
C749        C  0.10456674  0.38697299  0.20431381    -0.18740
C750        C  0.11137574  0.41936401  0.18563996     0.09650
S751        S  0.08074659  0.31772844  0.12149938    -0.33700
S752        S  0.13247438  0.45494357  0.21139960    -0.33710
H753        H  0.14340509  0.47730020  0.18282666     0.27660
H754        H  0.11287362  0.30036751  0.13277653     0.27660
H755        H  0.08492348  0.39197071  0.10183221     0.18250
H756        H  0.10898489  0.38568474  0.23324096     0.18260
C757        C  0.19708296  0.36139579  0.07360865    -0.07580
C758        C  0.20924899  0.38565557  0.09974002    -0.18700
C759        C  0.18948424  0.41689147  0.10779832     0.09620
C760        C  0.15670689  0.42442677  0.08892100    -0.07500
C761        C  0.14497467  0.40034138  0.06226047    -0.18740
C762        C  0.16439351  0.36874829  0.05483484     0.09650
S763        S  0.20796314  0.44521121  0.14279092    -0.33700
S764        S  0.14466446  0.33807373  0.02273439    -0.33710
H765        H  0.17703548  0.32224797  0.01106175     0.27660
H766        H  0.18630771  0.47561741  0.13665533     0.27660
H767        H  0.23430067  0.38006295  0.11421553     0.18250
H768        H  0.11984329  0.40562517  0.04785592     0.18260
C769        C  0.04832108  0.48356854  0.13974950    -0.07580
C770        C  0.02908708  0.47579474  0.10812633    -0.18700
C771        C  0.99138349  0.47896464  0.10600018     0.09620
C772        C  0.97073366  0.48528113  0.13733527    -0.07500
C773        C  0.98957990  0.49097165  0.16993197    -0.18740
C774        C  0.02804068  0.49128295  0.17133849     0.09650
S775        S  0.97061406  0.47806892  0.06208012    -0.33700
S776        S  0.04852645  0.50171909  0.21417344    -0.33710
H777        H  0.08280141  0.51061062  0.20117597     0.27660
H778        H  0.00237209  0.47635958  0.04138728     0.27660
H779        H  0.04421399  0.47035560  0.08386333     0.18250
H780        H  0.97431548  0.49642211  0.19413177     0.18260
C781        C  0.10559553  0.56139327  0.85322726    -0.07580
C782        C  0.08161501  0.58745828  0.86639719    -0.18700
C783        C  0.07567624  0.61999463  0.84785835     0.09620
C784        C  0.09365173  0.62626450  0.81485222    -0.07500
C785        C  0.12005040  0.60186071  0.80334432    -0.18740
C786        C  0.12692842  0.56981147  0.82260040     0.09650
S787        S  0.04306807  0.65061377  0.86705441    -0.33700
S788        S  0.16224441  0.54095143  0.80542764    -0.33710
H789        H  0.16255205  0.51457179  0.83272314     0.27660
H790        H  0.04792723  0.68054353  0.84414177     0.27660
H791        H  0.06532093  0.58125412  0.88977502     0.18250
H792        H  0.13479486  0.60741039  0.77870515     0.18260
C793        C  0.15286342  0.55522466  0.91505869    -0.07580
C794        C  0.18787970  0.55792197  0.90060241    -0.18700
C795        C  0.20967585  0.58829163  0.90635068     0.09620
C796        C  0.19641434  0.61695176  0.92720387    -0.07500
C797        C  0.16169230  0.61421947  0.94231789    -0.18740
C798        C  0.13984667  0.58363619  0.93666273     0.09650
S799        S  0.25388573  0.58900407  0.88584824    -0.33700
S800        S  0.09580860  0.58315931  0.95740228    -0.33710
H801        H  0.08653686  0.54708918  0.95066120     0.27660
H802        H  0.25593525  0.62668845  0.88087336     0.27660
H803        H  0.19796967  0.53667974  0.88357561     0.18250
H804        H  0.15160128  0.63602924  0.95881186     0.18260
C805        C  0.11377669  0.43160201  0.83435366    -0.07580
C806        C  0.13799281  0.40208414  0.83663953    -0.18700
C807        C  0.13029699  0.36884600  0.82039325     0.09620
C808        C  0.09866476  0.36543348  0.79897883    -0.07500
C809        C  0.08050405  0.39728117  0.78893746    -0.18740
C810        C  0.09033965  0.43056577  0.80366846     0.09650
S811        S  0.16258025  0.33283599  0.82731151    -0.33700
S812        S  0.07983886  0.46912127  0.77580529    -0.33710
H813        H  0.11153641  0.48757702  0.78560969     0.27660
H814        H  0.16230102  0.32250239  0.79087145     0.27660
H815        H  0.16368414  0.40454442  0.85018478     0.18250
H816        H  0.05981907  0.39670048  0.76804738     0.18260
C817        C  0.18966481  0.36086330  0.92690699    -0.07580
C818        C  0.20833300  0.39358883  0.92319843    -0.18700
C819        C  0.19029830  0.42543728  0.91363805     0.09620
C820        C  0.15198823  0.42572260  0.91037952    -0.07500
C821        C  0.13284807  0.39344411  0.91674429    -0.18740
C822        C  0.15128403  0.36080815  0.92382360     0.09650
S823        S  0.21827630  0.46341152  0.90127438    -0.33700
S824        S  0.12411925  0.32037087  0.92751334    -0.33710
H825        H  0.14677179  0.30196735  0.95211477     0.27660
H826        H  0.19802279  0.47189623  0.87006781     0.27660
H827        H  0.23768104  0.39385785  0.92515639     0.18250
H828        H  0.10357015  0.39332716  0.91404940     0.18260
C829        C  0.13883739  0.48672090  0.96005776    -0.07580
C830        C  0.17066685  0.49664172  0.97866490    -0.18700
C831        C  0.17254686  0.49592136  0.01673335     0.09620
C832        C  0.14131445  0.48698115  0.03704166    -0.07500
C833        C  0.10976018  0.47683184  0.01821735    -0.18740
C834        C  0.10828201  0.47618586  0.98036434     0.09650
S835        S  0.21579314  0.50553272  0.03720722    -0.33700
S836        S  0.06634472  0.46381834  0.95807485    -0.33710
H837        H  0.04702274  0.45422514  0.98932018     0.27660
H838        H  0.20939595  0.48618195  0.06928428     0.27660
H839        H  0.19431059  0.50481312  0.96351527     0.18250
H840        H  0.08580350  0.46988027  0.03347123     0.18260
C841        C  0.05138505  0.49254221  0.85005210    -0.07580
C842        C  0.03158465  0.45982862  0.85342323    -0.18700
C843        C  0.99426216  0.45942728  0.84499814     0.09620
C844        C  0.97328451  0.49011262  0.85401978    -0.07500
C845        C  0.99339134  0.52280144  0.85391137    -0.18740
C846        C  0.02963682  0.52355076  0.84314426     0.09650
S847        S  0.98508077  0.43716774  0.80279188    -0.33700
S848        S  0.03636964  0.55293449  0.80460982    -0.33710
H849        H  0.06924462  0.53818741  0.79370048     0.27660
H850        H  0.95277612  0.45584174  0.79511556     0.27660
H851        H  0.04519111  0.43419387  0.85703382     0.18250
H852        H  0.98179526  0.54865515  0.85851278     0.19100
C853        C  0.57286541  0.89633994  0.84581658    -0.07580
C854        C  0.58995650  0.93027503  0.84500358    -0.18700
C855        C  0.62147053  0.93612307  0.82529315     0.09620
C856        C  0.63514643  0.90873761  0.80306932    -0.07500
C857        C  0.61757603  0.87508744  0.80246955    -0.18740
C858        C  0.58641061  0.86870482  0.82330836     0.09650
S859        S  0.64501412  0.97799471  0.83254710    -0.33700
S860        S  0.56467306  0.82522163  0.81907009    -0.33710
H861        H  0.52953854  0.83683961  0.82777551     0.27660
H862        H  0.68013438  0.96326975  0.83124899     0.27660
H863        H  0.58066578  0.95176603  0.86217854     0.18250
H864        H  0.62780950  0.85391505  0.78528328     0.18260
C865        C  0.57758201  0.84384449  0.90955606    -0.07580
C866        C  0.57286421  0.80594484  0.91129646    -0.18700
C867        C  0.60221424  0.78205257  0.91577708     0.09620
C868        C  0.63779097  0.79581972  0.91816756    -0.07500
C869        C  0.64280912  0.83337566  0.91624283    -0.18740
C870        C  0.61354754  0.85749726  0.91341876     0.09650
S871        S  0.59250844  0.73428420  0.91701735    -0.33700
S872        S  0.62556596  0.90437521  0.91926829    -0.33710
H873        H  0.59112154  0.91906807  0.91540851     0.27660
H874        H  0.62517052  0.72347453  0.90099944     0.27660
H875        H  0.54590935  0.79463752  0.90827831     0.18250
H876        H  0.66993023  0.84427296  0.91943412     0.18260
C877        C  0.44208713  0.89789461  0.85508618    -0.07580
C878        C  0.43264105  0.87160109  0.82948005    -0.18700
C879        C  0.40247340  0.87603656  0.80659780     0.09620
C880        C  0.38140720  0.90771108  0.80895913    -0.07500
C881        C  0.39065200  0.93381951  0.83444776    -0.18740
C882        C  0.42011061  0.92914361  0.85794468     0.09650
S883        S  0.39278667  0.84073801  0.77472372    -0.33700
S884        S  0.42668876  0.96402210  0.89089424    -0.33710
H885        H  0.45183666  0.94580517  0.91262135     0.27660
H886        H  0.37515728  0.86266923  0.74886767     0.27660
H887        H  0.44933398  0.84764138  0.82690284     0.18250
H888        H  0.37415398  0.95789151  0.83645161     0.18260
C889        C  0.38453770  0.79948551  0.92714787    -0.07580
C890        C  0.38671274  0.83418111  0.94193939    -0.18700
C891        C  0.41705397  0.85633194  0.93630289     0.09620
C892        C  0.44585500  0.84403819  0.91467075    -0.07500
C893        C  0.44372788  0.80909681  0.90013120    -0.18740
C894        C  0.41344392  0.78683531  0.90596692     0.09650
S895        S  0.41714997  0.89948941  0.95800349    -0.33700
S896        S  0.41321234  0.74287372  0.88532326    -0.33710
H897        H  0.37539185  0.73972373  0.88173390     0.27660
H898        H  0.45491045  0.90274792  0.96112971     0.27660
H899        H  0.36471809  0.84392849  0.95849553     0.18250
H900        H  0.46565512  0.79934369  0.88350119     0.18260
C901        C  0.64000613  0.90919578  0.18232522    -0.07580
C902        C  0.60633041  0.90698193  0.19937449    -0.18700
C903        C  0.57463791  0.89921287  0.18003754     0.09620
C904        C  0.57586673  0.89568432  0.14197055    -0.07500
C905        C  0.60976316  0.89824290  0.12494070    -0.18740
C906        C  0.64162773  0.90486656  0.14451015     0.09650
S907        S  0.53446460  0.89129704  0.20649118    -0.33700
S908        S  0.68300362  0.90875853  0.11915508    -0.33710
H909        H  0.69753542  0.93719535  0.13958171     0.27660
H910        H  0.51860071  0.86607721  0.18324158     0.27660
H911        H  0.60491189  0.90977992  0.22841665     0.18250
H912        H  0.61168066  0.89523242  0.09603758     0.18260
C913        C  0.57138643  0.83309946  0.09114322    -0.07580
C914        C  0.58855826  0.83475526  0.05758117    -0.18700
C915        C  0.61868964  0.81365986  0.05019065     0.09620
C916        C  0.63354522  0.79117505  0.07731892    -0.07500
C917        C  0.61732883  0.78990791  0.11137810    -0.18740
C918        C  0.58577875  0.80982443  0.11825312     0.09650
S919        S  0.63779367  0.81813440  0.00589598    -0.33700
S920        S  0.56533934  0.80433565  0.16194898    -0.33710
H921        H  0.52954129  0.80989854  0.14987029     0.27660
H922        H  0.67420796  0.81761227  0.01733972     0.27660
H923        H  0.57977646  0.85374646  0.03716523     0.18250
H924        H  0.62881029  0.77274254  0.13239733     0.18260
C925        C  0.38800565  0.91685529  0.18849537    -0.07580
C926        C  0.39647871  0.94193809  0.16118518    -0.18700
C927        C  0.42481224  0.93561761  0.13701701     0.09620
C928        C  0.44615240  0.90407105  0.14101218    -0.07500
C929        C  0.43782328  0.87934507  0.16884034    -0.18740
C930        C  0.40895989  0.88520715  0.19232393     0.09650
S931        S  0.43091654  0.96839017  0.10139714    -0.33700
S932        S  0.40024516  0.85125085  0.22644941    -0.33710
H933        H  0.38542431  0.87479331  0.25198886     0.27660
H934        H  0.45692586  0.95019524  0.08107730     0.27660
H935        H  0.38007149  0.96611145  0.15791368     0.18250
H936        H  0.45390868  0.85499637  0.17217111     0.18260
C937        C  0.37989135  0.79767508  0.08432305    -0.07580
C938        C  0.38043245  0.83210837  0.06828543    -0.18700
C939        C  0.41079380  0.85442241  0.07132194     0.09620
C940        C  0.44115003  0.84235932  0.09140373    -0.07500
C941        C  0.43992207  0.80831942  0.10861076    -0.18740
C942        C  0.40963435  0.78584105  0.10526702     0.09650
S943        S  0.40906655  0.89721128  0.04811605    -0.33700
S944        S  0.41077452  0.74244839  0.12789905    -0.33710
H945        H  0.37309199  0.73882398  0.13205933     0.27660
H946        H  0.44627116  0.89932991  0.04076136     0.27660
H947        H  0.35742086  0.84118583  0.05222413     0.18250
H948        H  0.46294520  0.79909965  0.12454097     0.18260
C949        C  0.51348243  0.85247953  0.96211297    -0.07580
C950        C  0.49960332  0.82067271  0.97868215    -0.18700
C951        C  0.49750652  0.81716068  0.01696968     0.09620
C952        C  0.50679929  0.84702682  0.03896259    -0.07500
C953        C  0.51803579  0.87842378  0.02182024    -0.18740
C954        C  0.52452391  0.88054511  0.98521256     0.09650
S955        S  0.48281726  0.77463570  0.03565682    -0.33700
S956        S  0.54747830  0.92038399  0.97057071    -0.33710
H957        H  0.57340564  0.91933079  0.99860129     0.27660
H958        H  0.50066723  0.77876557  0.06899048     0.27660
H959        H  0.49104267  0.79836958  0.96195560     0.18250
H960        H  0.52392496  0.90129340  0.03805918     0.18260
C961        C  0.57572325  0.07402105  0.85471909    -0.07580
C962        C  0.57108623  0.07389326  0.81689528    -0.18700
C963        C  0.60033495  0.06990114  0.79350862     0.09620
C964        C  0.63552378  0.06610133  0.80788383    -0.07500
C965        C  0.64031414  0.06504688  0.84544374    -0.18740
C966        C  0.61081624  0.06675163  0.86888055     0.09650
S967        S  0.59107852  0.07145723  0.74570170    -0.33700
S968        S  0.62006367  0.05338342  0.91489170    -0.33710
H969        H  0.58451573  0.05526224  0.92693215     0.27660
H970        H  0.62404246  0.08790899  0.73603958     0.27660
H971        H  0.54445712  0.07829183  0.80523923     0.18250
H972        H  0.66709345  0.05984464  0.85659976     0.18260
C973        C  0.57607031  0.13701970  0.90547229    -0.07580
C974        C  0.59624430  0.13127438  0.93714249    -0.18700
C975        C  0.62844365  0.15000653  0.94311636     0.09620
C976        C  0.63850669  0.17801142  0.91931928    -0.07500
C977        C  0.61786812  0.18504914  0.88844722    -0.18740
C978        C  0.58712923  0.16445353  0.88083817     0.09650
S979        S  0.65680552  0.13564495  0.98014400    -0.33700
S980        S  0.56213255  0.17692152  0.84085740    -0.33710
H981        H  0.55649722  0.14158537  0.82978857     0.27660
H982        H  0.69003082  0.14180789  0.96279266     0.27660
H983        H  0.58757397  0.11114918  0.95670152     0.18250
H984        H  0.62576417  0.20670474  0.87019052     0.18260
C985        C  0.38259378  0.06291773  0.81159440    -0.07580
C986        C  0.40996142  0.08400171  0.79634813    -0.18700
C987        C  0.44135255  0.09214457  0.81587255     0.09620
C988        C  0.44602631  0.07754895  0.85114228    -0.07500
C989        C  0.41952235  0.05438553  0.86524333    -0.18740
C990        C  0.38702784  0.04853403  0.84667898     0.09650
S991        S  0.47364653  0.12111518  0.79338077    -0.33700
S992        S  0.35193223  0.02328817  0.86926090    -0.33710
H993        H  0.32415115  0.04795338  0.86070461     0.27660
H994        H  0.49949538  0.12270200  0.82075908     0.27660
H995        H  0.40649288  0.09481319  0.76924350     0.18250
H996        H  0.42344940  0.04229594  0.89169526     0.18260
C997        C  0.37908636  0.17747806  0.91815707    -0.07580
C998        C  0.41049010  0.19564106  0.90734635    -0.18700
C999        C  0.44182279  0.17659309  0.89811670     0.09620
C1000       C  0.44371558  0.13864974  0.90385748    -0.07500
C1001       C  0.41262409  0.12092864  0.91664969    -0.18740
C1002       C  0.37973427  0.13925707  0.92100119     0.09650
S1003       S  0.47691563  0.20222931  0.87644272    -0.33700
S1004       S  0.34004333  0.11169190  0.92908709    -0.33710
H1005       H  0.32028497  0.13667545  0.94928781     0.27660
H1006       H  0.48565339  0.17454995  0.85257332     0.27660
H1007       H  0.40990450  0.22480864  0.90398890     0.18250
H1008       H  0.41376747  0.09252492  0.92340510     0.18260
C1009       C  0.50953713  0.02626557  0.86477560    -0.07580
C1010       C  0.50265088  0.00906361  0.83146643    -0.18700
C1011       C  0.50242368  0.97061722  0.82879608     0.09620
C1012       C  0.50918909  0.94911481  0.86005084    -0.07500
C1013       C  0.51572624  0.96684742  0.89234049    -0.18740
C1014       C  0.51551454  0.00418772  0.89537982     0.09650
S1015       S  0.49299351  0.95104758  0.78544523    -0.33700
S1016       S  0.52146501  0.02249460  0.93969343    -0.33710
H1017       H  0.50894390  0.99210912  0.95905944     0.27660
H1018       H  0.50319585  0.91542343  0.79427373     0.27660
H1019       H  0.49746768  0.02547801  0.80763028     0.18250
H1020       H  0.51897567  0.95081666  0.91611624     0.18260
C1021       C  0.57508683  0.07961359  0.14498038    -0.07580
C1022       C  0.60040566  0.05450992  0.13242078    -0.18700
C1023       C  0.63143924  0.04573848  0.15251141     0.09620
C1024       C  0.63689804  0.06161672  0.18658313    -0.07500
C1025       C  0.61099950  0.08556003  0.19993879    -0.18740
C1026       C  0.58034993  0.09488428  0.17943119     0.09650
S1027       S  0.66303689  0.01437668  0.13296200    -0.33700
S1028       S  0.54867031  0.12599942  0.19884660    -0.33710
H1029       H  0.54251002  0.14475373  0.16639318     0.27660
H1030       H  0.67510260  0.99872165  0.16555650     0.27660
H1031       H  0.59561176  0.04087445  0.10723419     0.18250
H1032       H  0.61495355  0.09748043  0.22627353     0.18260
C1033       C  0.57502012  0.13278517  0.08422104    -0.07580
C1034       C  0.57575738  0.16870039  0.09630241    -0.18700
C1035       C  0.60664397  0.19027101  0.09243311     0.09620
C1036       C  0.63806735  0.17532933  0.07727547    -0.07500
C1037       C  0.63773162  0.13919088  0.06613015    -0.18740
C1038       C  0.60591776  0.11855160  0.06719763     0.09650
S1039       S  0.60455135  0.23621318  0.10820374    -0.33700
S1040       S  0.60586648  0.07612128  0.04351789    -0.33710
H1041       H  0.56815170  0.07223995  0.04074255     0.27660
H1042       H  0.64159546  0.23945126  0.11677073     0.27660
H1043       H  0.55208047  0.18009004  0.10894360     0.18250
H1044       H  0.66197252  0.12762289  0.05465558     0.18260
C1045       C  0.44337152  0.08090483  0.14447990    -0.07580
C1046       C  0.44530131  0.09016527  0.18112555    -0.18700
C1047       C  0.41551954  0.08598782  0.20393964     0.09620
C1048       C  0.38237327  0.07376592  0.18953957    -0.07500
C1049       C  0.37962930  0.06635431  0.15270949    -0.18740
C1050       C  0.40971838  0.06904040  0.13026210     0.09650
S1051       S  0.42155862  0.09674240  0.25093377    -0.33700
S1052       S  0.40336952  0.05471496  0.08461684    -0.33710
H1053       H  0.43824728  0.04026961  0.08334800     0.27660
H1054       H  0.38529711  0.10628013  0.25738828     0.27660
H1055       H  0.47046067  0.10049176  0.19219000     0.18250
H1056       H  0.35420086  0.05651932  0.14168207     0.18260
C1057       C  0.38347131  0.18038607  0.07500371    -0.07580
C1058       C  0.40464223  0.18525203  0.10596503    -0.18700
C1059       C  0.43590086  0.16446310  0.11188866     0.09620
C1060       C  0.44568524  0.13742111  0.08685868    -0.07500
C1061       C  0.42460638  0.13333270  0.05564065    -0.18740
C1062       C  0.39340659  0.15389351  0.04994708     0.09650
S1063       S  0.46280214  0.17475535  0.15110250    -0.33700
S1064       S  0.36630699  0.14375770  0.01103465    -0.33710
H1065       H  0.33252580  0.14880200  0.02757428     0.27660
H1066       H  0.49570376  0.16905500  0.13352653     0.27660
H1067       H  0.39723747  0.20583728  0.12518633     0.18250
H1068       H  0.43112169  0.11263406  0.03641378     0.18260
C1069       C  0.51118545  0.02877657  0.13478031    -0.07580
C1070       C  0.52446040  0.01214131  0.10401412    -0.18700
C1071       C  0.52824121  0.97492257  0.10129750     0.09620
C1072       C  0.51563084  0.95148973  0.12916515    -0.07500
C1073       C  0.50314141  0.96805680  0.16097289    -0.18740
C1074       C  0.50241583  0.00631604  0.16466674     0.09650
S1075       S  0.54826195  0.96125243  0.05983224    -0.33700
S1076       S  0.49345972  0.02543624  0.20811697    -0.33710
H1077       H  0.48796428  0.99255211  0.22670041     0.27660
H1078       H  0.57008670  0.93442773  0.07488237     0.27660
H1079       H  0.53330553  0.02885168  0.08162129     0.18250
H1080       H  0.49369969  0.95112284  0.18286572     0.18260
C1081       C  0.50805955  0.13002607  0.95633055    -0.07580
C1082       C  0.49336385  0.10003469  0.97433040    -0.18700
C1083       C  0.49565034  0.09559601  0.01160590     0.09620
C1084       C  0.50865813  0.12368064  0.03369958    -0.07500
C1085       C  0.52156466  0.15521721  0.01636256    -0.18740
C1086       C  0.52199632  0.15857122  0.97810985     0.09650
S1087       S  0.48321477  0.05213312  0.02929740    -0.33700
S1088       S  0.53934510  0.20050424  0.96007493    -0.33710
H1089       H  0.53275928  0.19320656  0.92384404     0.27660
H1090       H  0.51415518  0.03533382  0.01526968     0.27660
H1091       H  0.48080290  0.07875206  0.95890384     0.18250
H1092       H  0.53162613  0.17727403  0.03260240     0.18260
C1093       C  0.92186061  0.85061267  0.57013313    -0.07580
C1094       C  0.89697785  0.82274962  0.57745890    -0.18700
C1095       C  0.90011601  0.80121761  0.60854402     0.09620
C1096       C  0.92892802  0.80744672  0.63282211    -0.07500
C1097       C  0.95266333  0.83645959  0.62655757    -0.18740
C1098       C  0.94968868  0.85809834  0.59542373     0.09650
S1099       S  0.86785404  0.76504443  0.61447732    -0.33700
S1100       S  0.98459929  0.89165279  0.58829658    -0.33710
H1101       H  0.97578614  0.90218788  0.55290138     0.27660
H1102       H  0.86920381  0.76401388  0.65233959     0.27660
H1103       H  0.87541929  0.81720511  0.55826963     0.18250
H1104       H  0.97454430  0.84136386  0.64544522     0.18260
C1105       C  0.82581688  0.91933997  0.62435458    -0.07580
C1106       C  0.85937408  0.93723562  0.62280251    -0.18700
C1107       C  0.88244885  0.93360043  0.59301993     0.09620
C1108       C  0.87214747  0.91061928  0.56438952    -0.07500
C1109       C  0.83833750  0.89310593  0.56598344    -0.18740
C1110       C  0.81520958  0.89716625  0.59545903     0.09650
S1111       S  0.92323523  0.96050451  0.59304818    -0.33700
S1112       S  0.77263489  0.87320777  0.59454759    -0.33710
H1113       H  0.76948342  0.86844945  0.63204974     0.27660
H1114       H  0.93383492  0.95392357  0.55756737     0.27660
H1115       H  0.86733059  0.95483052  0.64469772     0.18250
H1116       H  0.83016123  0.87551350  0.54415534     0.18260
C1117       C  0.87006249  0.90683073  0.43512383    -0.07580
C1118       C  0.83205974  0.90591876  0.43855318    -0.18700
C1119       C  0.80897779  0.90693543  0.40826188     0.09620
C1120       C  0.82373641  0.91049777  0.37330483    -0.07500
C1121       C  0.86150317  0.91344602  0.36985357    -0.18740
C1122       C  0.88472678  0.91196918  0.40001866     0.09650
S1123       S  0.76097573  0.90283538  0.41601090    -0.33700
S1124       S  0.93248308  0.91235510  0.39081830    -0.33710
H1125       H  0.94122614  0.92891283  0.42306233     0.27660
H1126       H  0.75311495  0.88496080  0.38357238     0.27660
H1127       H  0.82027714  0.90178649  0.46498950     0.18250
H1128       H  0.87311719  0.91702608  0.34327146     0.18260
C1129       C  0.92779324  0.79393991  0.37605554    -0.07580
C1130       C  0.94539274  0.78580848  0.40880152    -0.18700
C1131       C  0.93385973  0.80126591  0.44119783     0.09620
C1132       C  0.91034155  0.83168809  0.44056183    -0.07500
C1133       C  0.88728141  0.83289638  0.41015794    -0.18740
C1134       C  0.89647565  0.81613725  0.37763570     0.09650
S1135       S  0.93482845  0.77056116  0.47893721    -0.33700
S1136       S  0.86623368  0.82351752  0.33997344    -0.33710
H1137       H  0.89195626  0.84432662  0.32103903     0.27660
H1138       H  0.90410812  0.78499349  0.49593076     0.27660
H1139       H  0.96535249  0.76430388  0.40988718     0.18250
H1140       H  0.86141566  0.84607501  0.41130083     0.18260
C1141       C  0.91849807  0.14154699  0.56610561    -0.07580
C1142       C  0.93048301  0.12002387  0.59539179    -0.18700
C1143       C  0.93943908  0.13554526  0.62878253     0.09620
C1144       C  0.93815437  0.17353899  0.63235385    -0.07500
C1145       C  0.92751313  0.19486326  0.60322631    -0.18740
C1146       C  0.91563571  0.17952167  0.57119457     0.09650
S1147       S  0.95205901  0.10566836  0.66548626    -0.33700
S1148       S  0.89210271  0.20932479  0.54049116    -0.33710
H1149       H  0.89062323  0.24039055  0.56202710     0.27660
H1150       H  0.97528875  0.13017033  0.68293013     0.27660
H1151       H  0.93157190  0.09088647  0.59258371     0.18250
H1152       H  0.92610139  0.22390769  0.60663518     0.18260
C1153       C  0.80126003  0.08524294  0.62206381    -0.07580
C1154       C  0.83077646  0.10902960  0.62460515    -0.18700
C1155       C  0.84535094  0.12428901  0.59337217     0.09620
C1156       C  0.84256315  0.10415357  0.56141965    -0.07500
C1157       C  0.80886947  0.08662708  0.55666591    -0.18740
C1158       C  0.78754149  0.07755084  0.58698790     0.09650
S1159       S  0.83337630  0.17124587  0.58976530    -0.33700
S1160       S  0.74604079  0.05309536  0.57916934    -0.33710
H1161       H  0.72724893  0.07005478  0.60724925     0.27660
H1162       H  0.84332017  0.17979639  0.62542907     0.27660
H1163       H  0.83834071  0.12021827  0.65048537     0.18250
H1164       H  0.80103987  0.07636244  0.53048067     0.18260
C1165       C  0.93808450  0.16828377  0.36662685    -0.07580
C1166       C  0.92940664  0.18958022  0.39583087    -0.18700
C1167       C  0.91637398  0.17446323  0.42748393     0.09620
C1168       C  0.91467578  0.13631171  0.43215505    -0.07500
C1169       C  0.92420750  0.11458160  0.40269416    -0.18740
C1170       C  0.93532085  0.13020432  0.36974839     0.09650
S1171       S  0.89795995  0.20689547  0.45747263    -0.33700
S1172       S  0.94642093  0.10031703  0.33333640    -0.33710
H1173       H  0.97204339  0.12324843  0.31699919     0.27660
H1174       H  0.87674399  0.18216604  0.47665590     0.27660
H1175       H  0.93045713  0.21883075  0.39304718     0.18250
H1176       H  0.92312595  0.08538904  0.40540271     0.18260
C1177       C  0.80964113  0.06640233  0.37566213    -0.07580
C1178       C  0.81350365  0.10262391  0.38538817    -0.18700
C1179       C  0.83144954  0.11198848  0.41764018     0.09620
C1180       C  0.85073296  0.08517630  0.43784316    -0.07500
C1181       C  0.84618416  0.04911968  0.42769777    -0.18740
C1182       C  0.82417092  0.03966988  0.39879108     0.09650
S1183       S  0.82422851  0.15657888  0.43499118    -0.33700
S1184       S  0.81573943  0.99272705  0.39328480    -0.33710
H1185       H  0.77842334  0.99637921  0.40014674     0.27660
H1186       H  0.80893029  0.17196151  0.40354017     0.27660
H1187       H  0.80047202  0.12323765  0.36888922     0.18250
H1188       H  0.85914179  0.02743361  0.44217540     0.18260
C1189       C  0.87452717  0.03561162  0.50792739    -0.07580
C1190       C  0.90562674  0.02067313  0.49200010    -0.18700
C1191       C  0.91135718  0.98299001  0.48944104     0.09620
C1192       C  0.88287361  0.95849000  0.49730850    -0.07500
C1193       C  0.85141296  0.97326785  0.51246458    -0.18740
C1194       C  0.85042795  0.00974435  0.52349789     0.09650
S1195       S  0.95650058  0.96690241  0.48033772    -0.33700
S1196       S  0.83712219  0.01253439  0.56970914    -0.33710
H1197       H  0.86656887  0.03449681  0.57992190     0.27660
H1198       H  0.97404445  0.00043523  0.48382198     0.27660
H1199       H  0.92585668  0.03854750  0.48194971     0.18250
H1200       H  0.83089021  0.95492937  0.52255446     0.18260
C1201       C  0.16333054  0.08962967  0.56432167    -0.07580
C1202       C  0.19677613  0.07135886  0.56172026    -0.18700
C1203       C  0.21996215  0.06517513  0.59106060     0.09620
C1204       C  0.20956337  0.07692126  0.62537854    -0.07500
C1205       C  0.17998105  0.10024417  0.62759046    -0.18740
C1206       C  0.15867513  0.10879301  0.59734106     0.09650
S1207       S  0.26302424  0.04404387  0.58218495    -0.33700
S1208       S  0.13528669  0.15122387  0.60246952    -0.33710
H1209       H  0.05734645  0.15121277  0.59413430     0.27660
H1210       H  0.28244175  0.06538675  0.60692687     0.27660
H1211       H  0.20627448  0.06328293  0.53619595     0.18250
H1212       H  0.17396672  0.11312685  0.65300878     0.18260
C1213       C  0.08849990  0.12564318  0.55996470    -0.07580
C1214       C  0.08893385  0.17149368  0.55650626    -0.18700
C1215       C  0.08478201  0.19707545  0.59338044     0.09620
C1216       C  0.08073596  0.17706169  0.63432374    -0.07500
C1217       C  0.08022337  0.13144089  0.63825104    -0.18740
C1218       C  0.08361403  0.10545915  0.60118406     0.09650
S1219       S  0.08697901  0.24531642  0.58785630    -0.33700
S1220       S  0.08339805  0.05713183  0.60674428    -0.33710
H1221       H  0.07868111  0.04999233  0.56987856     0.27660
H1222       H  0.10084228  0.25172917  0.62259863     0.27660
H1223       H  0.09563414  0.18476146  0.53159612     0.18250
H1224       H  0.07732399  0.11882306  0.66453494     0.18260
C1225       C  0.09859163  0.12811516  0.43141222    -0.07580
C1226       C  0.08615646  0.11084149  0.40014597    -0.18700
C1227       C  0.08040135  0.13030085  0.36809112     0.09620
C1228       C  0.08597804  0.16809813  0.36765184    -0.07500
C1229       C  0.09755721  0.18543259  0.39890837    -0.18740
C1230       C  0.10524245  0.16582407  0.43029695     0.09650
S1231       S  0.06566150  0.10542574  0.32902224    -0.33700
S1232       S  0.12556295  0.19096305  0.46659421    -0.33710
H1233       H  0.14113168  0.16195078  0.48573569     0.27660
H1234       H  0.04316540  0.13286025  0.31483170     0.27660
H1235       H  0.08113413  0.08203143  0.40049064     0.18250
H1236       H  0.10223633  0.21439781  0.39835202     0.18260
C1237       C  0.19886256  0.06605196  0.37015035    -0.07580
C1238       C  0.21062676  0.09228135  0.39448690    -0.18700
C1239       C  0.19173414  0.09861409  0.42637922     0.09620
C1240       C  0.16056096  0.07783265  0.43442858    -0.07500
C1241       C  0.14907058  0.05123869  0.41021094    -0.18740
C1242       C  0.16706308  0.04600402  0.37758555     0.09650
S1243       S  0.20858158  0.13408707  0.45499981    -0.33700
S1244       S  0.14891870  0.01222598  0.34755243    -0.33710
H1245       H  0.16115088  0.02802434  0.31529270     0.27660
H1246       H  0.19942045  0.11775888  0.48795888     0.27660
H1247       H  0.23487357  0.10780021  0.38869207     0.18250
H1248       H  0.12533286  0.03509978  0.41637896     0.18260
C1249       C  0.96576457  0.12618237  0.49629908    -0.07580
C1250       C  0.98154907  0.09565712  0.48020734    -0.18700
C1251       C  0.01920704  0.08995422  0.47813386     0.09620
C1252       C  0.04366732  0.11640722  0.49162215    -0.07500
C1253       C  0.02800942  0.14949724  0.50177885    -0.18740
C1254       C  0.99017960  0.15442832  0.50506919     0.09650
S1255       S  0.03207186  0.04846274  0.45613835    -0.33700
S1256       S  0.97568469  0.19920289  0.51504767    -0.33710
H1257       H  0.98229035  0.21133829  0.47959901     0.27660
H1258       H  0.06952131  0.05121178  0.45695512     0.27660
H1259       H  0.96435434  0.07606389  0.46769238     0.18250
H1260       H  0.04494135  0.17274707  0.50528121     0.18260
C1261       C  0.09557480  0.84374586  0.56122796    -0.07580
C1262       C  0.07690557  0.85939202  0.59002280    -0.18700
C1263       C  0.07106333  0.84050059  0.62237942     0.09620
C1264       C  0.08232561  0.80412901  0.62567531    -0.07500
C1265       C  0.10019742  0.78793100  0.59684153    -0.18740
C1266       C  0.10813234  0.80761350  0.56533440     0.09650
S1267       S  0.05012085  0.86486329  0.65872237    -0.33700
S1268       S  0.13394067  0.78467093  0.53146017    -0.33710
H1269       H  0.15077793  0.81578871  0.51792136     0.27660
H1270       H  0.03324955  0.83504599  0.67532465     0.27660
H1271       H  0.06678069  0.88659664  0.58753174     0.18250
H1272       H  0.10920142  0.76010260  0.59940454     0.18260
C1273       C  0.19469954  0.91271726  0.62703283    -0.07580
C1274       C  0.16360553  0.93374495  0.62096151    -0.18700
C1275       C  0.14107245  0.92822217  0.59088591     0.09620
C1276       C  0.15010709  0.90107033  0.56564114    -0.07500
C1277       C  0.18142704  0.88018344  0.57188001    -0.18740
C1278       C  0.20349866  0.88539355  0.60232318     0.09650
S1279       S  0.10198960  0.95731596  0.58719330    -0.33700
S1280       S  0.24310029  0.85711279  0.60728725    -0.33710
H1281       H  0.24544813  0.85828043  0.64508388     0.27660
H1282       H  0.08318214  0.93712809  0.56167546     0.27660
H1283       H  0.15674647  0.95470361  0.64000563     0.18250
H1284       H  0.18888737  0.85963885  0.55264355     0.18260
C1285       C  0.10626312  0.84427638  0.42912177    -0.07580
C1286       C  0.10189386  0.80664313  0.43422694    -0.18700
C1287       C  0.09851059  0.78294178  0.40527042     0.09620
C1288       C  0.09844920  0.79677128  0.36981333    -0.07500
C1289       C  0.10408115  0.83383898  0.36412712    -0.18740
C1290       C  0.10745425  0.85790075  0.39284595     0.09650
S1291       S  0.09574039  0.73519485  0.41530296    -0.33700
S1292       S  0.10869543  0.90520462  0.37936882    -0.33710
H1293       H  0.10135238  0.92059758  0.41294569     0.27660
H1294       H  0.11333236  0.72398316  0.38376042     0.27660
H1295       H  0.10179632  0.79529527  0.46121506     0.18250
H1296       H  0.10359632  0.84462918  0.33681761     0.18260
C1297       C  0.16839822  0.89767112  0.43828825    -0.07580
C1298       C  0.17615690  0.93270425  0.42573143    -0.18700
C1299       C  0.20320215  0.93889951  0.40056061     0.09620
C1300       C  0.21605687  0.91018249  0.37947992    -0.07500
C1301       C  0.20838885  0.87478215  0.39109484    -0.18740
C1302       C  0.18797410  0.86866399  0.42259726     0.09650
S1303       S  0.22290090  0.98304697  0.40010845    -0.33700
S1304       S  0.19045389  0.82445834  0.44306125    -0.33710
H1305       H  0.19178863  0.83843586  0.47815778     0.27660
H1306       H  0.25841456  0.96989470  0.40509940     0.27660
H1307       H  0.16126654  0.95581920  0.43501638     0.18250
H1308       H  0.22027761  0.85212494  0.37712936     0.18260
C1309       C  0.14544589  0.95179039  0.50049035    -0.07580
C1310       C  0.17933292  0.96917435  0.50008507    -0.18700
C1311       C  0.18166407  0.00728002  0.49672440     0.09620
C1312       C  0.15001185  0.02868658  0.50180130    -0.07500
C1313       C  0.11661800  0.01074559  0.50449395    -0.18740
C1314       C  0.11380091  0.97328861  0.50025692     0.09650
S1315       S  0.22394491  0.02694455  0.48184189    -0.33700
S1316       S  0.06964120  0.95365730  0.49186611    -0.33710
H1317       H  0.04908252  0.98343983  0.50316924     0.27660
H1318       H  0.24462894  0.99498243  0.48315731     0.27660
H1319       H  0.20350572  0.95267803  0.49849432     0.18250
H1320       H  0.09223125  0.02653532  0.50753802     0.18260
C1321       C  0.04823309  0.84891741  0.48979679    -0.07580
C1322       C  0.03172828  0.82477176  0.51437331    -0.18700
C1323       C  0.99381895  0.82394863  0.52001442     0.09620
C1324       C  0.97076207  0.84769267  0.49956775    -0.07500
C1325       C  0.98719038  0.86880124  0.47303492    -0.18740
C1326       C  0.02409670  0.86817402  0.46656095     0.09650
S1327       S  0.97721821  0.79033649  0.55148384    -0.33700
S1328       S  0.03553767  0.88966484  0.42511482    -0.33710
H1329       H  0.02783354  0.85798206  0.40558584     0.27660
H1330       H  0.00968598  0.78584344  0.57121072     0.27660
H1331       H  0.04836257  0.80562062  0.52886671     0.18250
H1332       H  0.97075605  0.88626542  0.45619152     0.18260
loop_ 
_geom_bond_atom_site_label_1 
_geom_bond_atom_site_label_2 
_geom_bond_distance 
_geom_bond_site_symmetry_2 
_ccdc_geom_bond_type 
C1            C2   1.437       .  A
C1            C6   1.418       .  A
C1         C1261   1.500       .  S
C2            C3   1.439       .  A
C2         C1321   1.531       .  S
C3            C4   1.436       .  A
C3         C1285   1.510       .  S
C4            C5   1.424       .  A
C4         C1297   1.510       .  S
C5            C6   1.405       .  A
C5         C1309   1.497       .  S
C6         C1276   1.496       .  S
C7            C8   1.408       .  A
C7           C12   1.418       .  A
C7         C1240   1.480       .  S
C8            C9   1.429       .  A
C8         C1312   1.509       .  S
C9           C10   1.438       .  A
C9         C1201   1.543       .  S
C10          C11   1.430       .  A
C10        C1213   1.456       .  S
C11          C12   1.413       .  A
C11        C1252   1.528       .  S
C12        C1225   1.479       .  S
C13          C14   1.426       .  A
C13          C18   1.433       .  A
C13        C1168   1.502       .  S
C14          C15   1.443       .  A
C14        C1249   1.536       .  S
C15          C16   1.450       .  A
C15        C1141   1.496       .  S
C16          C17   1.427       .  A
C16        C1156   1.532       .  S
C17          C18   1.430       .  A
C17        C1189   1.551       .  S
C18        C1180   1.506       .  S
C19          C20   1.441       .  A
C19          C24   1.462       .  A
C19        C1132   1.549       .  S
C20          C21   1.414       .  A
C20        C1324   1.519       .  S
C21          C22   1.414       .  A
C21        C1093   1.479       .  S
C22          C23   1.415       .  A
C22        C1108   1.495       .  S
C23          C24   1.437       .  A
C23        C1192   1.521       .  S
C24        C1117   1.504       .  S
C25          C26   1.417       .  A
C25          C30   1.428       .  A
C25        C1060   1.489       .  S
C26          C27   1.413       .  A
C26        C1084   1.512       .  S
C27          C28   1.424       .  A
C27        C1033   1.483       .  S
C28          C29   1.414       .  A
C28        C1021   1.487       .  S
C29          C30   1.420       .  A
C29        C1069   1.508       .  S
C30        C1045   1.492       .  S
C31          C32   1.419       .  A
C31          C36   1.430       .  A
C31        C1000   1.502       .  S
C32          C33   1.422       .  A
C32        C1081   1.518       .  S
C33          C34   1.431       .  A
C33         C973   1.477       .  S
C34          C35   1.412       .  A
C34         C961   1.502       .  S
C35          C36   1.413       .  A
C35        C1009   1.507       .  S
C36         C988   1.478       .  S
C37          C38   1.431       .  A
C37          C42   1.421       .  A
C37         C913   1.488       .  S
C38          C39   1.421       .  A
C38         C904   1.499       .  S
C39          C40   1.423       .  A
C39        C1072   1.519       .  S
C40          C41   1.425       .  A
C40         C928   1.489       .  S
C41          C42   1.406       .  A
C41         C940   1.481       .  S
C42         C952   1.507       .  S
C43          C44   1.416       .  A
C43          C48   1.424       .  A
C43         C877   1.490       .  S
C44          C45   1.423       .  A
C44        C1012   1.506       .  S
C45          C46   1.437       .  A
C45         C853   1.497       .  S
C46          C47   1.430       .  A
C46         C865   1.512       .  S
C47          C48   1.419       .  A
C47         C949   1.514       .  S
C48         C892   1.495       .  S
C49          C50   1.438       .  A
C49          C54   1.455       .  A
C49         C805   1.546       .  S
C50          C51   1.430       .  A
C50         C841   1.537       .  S
C51          C52   1.412       .  A
C51         C781   1.479       .  S
C52          C53   1.400       .  A
C52         C793   1.492       .  S
C53          C54   1.422       .  A
C53         C829   1.505       .  S
C54         C820   1.491       .  S
C55          C56   1.425       .  A
C55          C60   1.420       .  A
C55         C745   1.489       .  S
C56          C57   1.412       .  A
C56         C760   1.491       .  S
C57          C58   1.414       .  A
C57         C832   1.505       .  S
C58          C59   1.425       .  A
C58         C733   1.488       .  S
C59          C60   1.420       .  A
C59         C721   1.488       .  S
C60         C769   1.506       .  S
C61          C62   1.430       .  A
C61          C66   1.428       .  A
C61         C700   1.502       .  S
C62          C63   1.418       .  A
C62         C685   1.492       .  S
C63          C64   1.406       .  A
C63         C772   1.509       .  S
C64          C65   1.430       .  A
C64         C661   1.501       .  S
C65          C66   1.434       .  A
C65         C676   1.481       .  S
C66         C709   1.535       .  S
C67          C68   1.434       .  A
C67          C72   1.432       .  A
C67         C613   1.512       .  S
C68          C69   1.442       .  A
C68         C844   1.550       .  S
C69          C70   1.432       .  A
C69         C640   1.484       .  S
C70          C71   1.409       .  A
C70         C649   1.508       .  S
C71          C72   1.419       .  A
C71         C712   1.523       .  S
C72         C625   1.482       .  S
N73          N74   1.327       .  A
N73          N79   1.316       .  A
N73        Mn102   2.205       .  S
N74          C81   1.356       .  A
N75          N77   1.318       .  A
N75          N76   1.313       .  A
N75         Mn91   2.197       .  S
N76          C82   1.347       .  A
N77          N78   1.328       .  A
N77        Mn102   2.218       .  S
N78          C82   1.357       .  A
N79          N80   1.310       .  A
N79         Mn91   2.184       .  S
N80          C81   1.346       .  A
C81         C498   1.458       .  S
C82         C251   1.467       .  S
N83          N89   1.313       .  A
N83          N84   1.320       .  A
N83        Mn113   2.194       .  S
N84          C92   1.351       .  A
N85          N86   1.322       .  A
N85          N87   1.314       .  A
N85         Mn91   2.207       .  S
N86          C93   1.352       .  A
N87          N88   1.323       .  A
N87        Mn113   2.206       .  S
N88          C93   1.354       .  A
N89          N90   1.323       .  A
N89         Mn91   2.203       .  S
N90          C92   1.353       .  A
Mn91       Cl115   2.502       .  S
C92         C880   1.472       .  S
C93        C1273   1.476       .  S
N94          N95   1.328       .  A
N94         N100   1.316       .  A
N94        Mn102   2.216   1_545  S
N95         C103   1.357       .  A
N96          N98   1.317       .  A
N96          N97   1.313       .  A
N96        Mn114   2.193       .  S
N97         C104   1.348       .  A
N98          N99   1.326       .  A
N98        Mn102   2.210   1_545  S
N99         C104   1.355       .  A
N100        N101   1.313       .  A
N100       Mn114   2.190       .  S
N101        C103   1.346       .  A
Mn102      Cl115   2.592       .  S
C103        C374   1.466       .  S
C104        C126   1.462       .  S
N105        N106   1.318       .  A
N105        N111   1.312       .  A
N105       Mn113   2.182   1_545  S
N106        C116   1.351       .  A
N107        N108   1.318       .  A
N107        N109   1.315       .  A
N107       Mn114   2.185       .  S
N108        C117   1.348       .  A
N109        N110   1.320       .  A
N109       Mn113   2.196   1_545  S
N110        C117   1.351       .  A
N111        N112   1.319       .  A
N111       Mn114   2.195       .  S
N112        C116   1.354       .  A
Mn113      Cl115   2.568       .  S
Mn114      Cl115   2.502   1_545  S
C116       C1204   1.478       .  S
C117        C985   1.460       .  S
N118        N119   1.328       .  A
N118        N124   1.316       .  A
N118       Mn147   2.218       .  S
N119        C126   1.359       .  A
N120        N122   1.316       .  A
N120        N121   1.308       .  A
N120       Mn136   2.172       .  S
N121        C127   1.344       .  A
N122        N123   1.326       .  A
N122       Mn147   2.213       .  S
N123        C127   1.357       .  A
N124        N125   1.311       .  A
N124       Mn136   2.180       .  S
N125        C126   1.343       .  A
C127        C373   1.454       .  S
N128        N134   1.311       .  A
N128        N129   1.319       .  A
N128       Mn158   2.184       .  S
N129        C137   1.354       .  A
N130        N131   1.319       .  A
N130        N132   1.313       .  A
N130       Mn136   2.185       .  S
N131        C138   1.349       .  A
N132        N133   1.315       .  A
N132       Mn158   2.172       .  S
N133        C138   1.345       .  A
N134        N135   1.320       .  A
N134       Mn136   2.203       .  S
N135        C137   1.354       .  A
Mn136      Cl160   2.478       .  S
C137        C808   1.486       .  S
C138       C1216   1.449       .  S
N139        N140   1.326       .  A
N139        N145   1.316       .  A
N139       Mn147   2.211   1_655  S
N140        C148   1.357       .  A
N141        N143   1.315       .  A
N141        N142   1.310       .  A
N141       Mn159   2.171       .  S
N142        C149   1.342       .  A
N143        N144   1.330       .  A
N143       Mn147   2.228   1_655  S
N144        C149   1.361       .  A
N145        N146   1.309       .  A
N145       Mn159   2.171       .  S
N146        C148   1.344       .  A
Mn147      Cl160   2.598       .  S
C148        C477   1.453       .  S
C149        C531   1.464       .  S
N150        N151   1.318       .  A
N150        N156   1.313       .  A
N150       Mn158   2.192   1_655  S
N151        C161   1.349       .  A
N152        N153   1.320       .  A
N152        N154   1.313       .  A
N152       Mn159   2.192       .  S
N153        C162   1.349       .  A
N154        N155   1.319       .  A
N154       Mn158   2.180   1_655  S
N155        C162   1.350       .  A
N156        N157   1.321       .  A
N156       Mn159   2.176       .  S
N157        C161   1.348       .  A
Mn158      Cl160   2.572       .  S
Mn159      Cl160   2.482   1_655  S
C161       C1144   1.465       .  S
C162        C637   1.461       .  S
N163        N164   1.328       .  A
N163        N169   1.317       .  A
N163       Mn192   2.229       .  S
N164        C171   1.359       .  A
N165        N167   1.317       .  A
N165        N166   1.311       .  A
N165       Mn181   2.190       .  S
N166        C172   1.346       .  A
N167        N168   1.328       .  A
N167       Mn192   2.216       .  S
N168        C172   1.357       .  A
N169        N170   1.313       .  A
N169       Mn181   2.185       .  S
N170        C171   1.345       .  A
C171        C318   1.467       .  S
C172        C227   1.464       .  S
N173        N179   1.314       .  A
N173        N174   1.321       .  A
N173       Mn203   2.203       .  S
N174        C182   1.352       .  A
N175        N176   1.319       .  A
N175        N177   1.313       .  A
N175       Mn181   2.191       .  S
N176        C183   1.351       .  A
N177        N178   1.321       .  A
N177       Mn203   2.200       .  S
N178        C183   1.354       .  A
N179        N180   1.321       .  A
N179       Mn181   2.196       .  S
N180        C182   1.351       .  A
Mn181      Cl205   2.496       .  S
C182        C724   1.471       .  S
C183       C1288   1.475       .  S
N184        N185   1.328       .  A
N184        N190   1.318       .  A
N184       Mn192   2.224   1_655  S
N185        C193   1.357       .  A
N186        N188   1.317       .  A
N186        N187   1.310       .  A
N186       Mn204   2.183       .  S
N187        C194   1.344       .  A
N188        N189   1.328       .  A
N188       Mn192   2.221   1_655  S
N189        C194   1.358       .  A
N190        N191   1.313       .  A
N190       Mn204   2.195       .  S
N191        C193   1.347       .  A
Mn192      Cl205   2.596       .  S
C193        C577   1.469       .  S
C194        C431   1.462       .  S
N195        N196   1.325       .  A
N195        N201   1.312       .  A
N195       Mn203   2.213   1_655  S
N196        C206   1.360       .  A
N197        N198   1.321       .  A
N197        N199   1.314       .  A
N197       Mn204   2.201       .  S
N198        C207   1.352       .  A
N199        N200   1.321       .  A
N199       Mn203   2.197   1_655  S
N200        C207   1.351       .  A
N201        N202   1.319       .  A
N201       Mn204   2.198       .  S
N202        C206   1.351       .  A
Mn203      Cl205   2.583       .  S
Mn204      Cl205   2.493   1_655  S
C206       C1129   1.497       .  S
C207        C664   1.474       .  S
N208        N209   1.320       .  A
N208        N214   1.313       .  A
N208       Mn237   2.196       .  S
N209        C216   1.352       .  A
N210        N212   1.314       .  A
N210        N211   1.320       .  A
N210       Mn226   2.190       .  S
N211        C217   1.349       .  A
N212        N213   1.321       .  A
N212       Mn237   2.200       .  S
N213        C217   1.352       .  A
N214        N215   1.318       .  A
N214       Mn226   2.186       .  S
N215        C216   1.348       .  A
C216        C937   1.462       .  S
C217        C736   1.467       .  S
N218        N224   1.316       .  A
N218        N219   1.329       .  A
N218       Mn248   2.225       .  S
N219        C227   1.360       .  A
N220        N221   1.312       .  A
N220        N222   1.317       .  A
N220       Mn226   2.182       .  S
N221        C228   1.344       .  A
N222        N223   1.329       .  A
N222       Mn248   2.230       .  S
N223        C228   1.360       .  A
N224        N225   1.310       .  A
N224       Mn226   2.175       .  S
N225        C227   1.343       .  A
Mn226      Cl250   2.488       .  S
C228        C317   1.466       .  S
N229        N230   1.322       .  A
N229        N235   1.314       .  A
N229       Mn237   2.196   1_556  S
N230        C238   1.351       .  A
N231        N233   1.315       .  A
N231        N232   1.322       .  A
N231       Mn249   2.207       .  S
N232        C239   1.352       .  A
N233        N234   1.324       .  A
N233       Mn237   2.209   1_556  S
N234        C239   1.354       .  A
N235        N236   1.322       .  A
N235       Mn249   2.207       .  S
N236        C238   1.352       .  A
Mn237      Cl250   2.583       .  S
C238        C796   1.474       .  S
C239        C889   1.479       .  S
N240        N241   1.329       .  A
N240        N246   1.318       .  A
N240       Mn248   2.228   1_556  S
N241        C251   1.359       .  A
N242        N243   1.313       .  A
N242        N244   1.318       .  A
N242       Mn249   2.189       .  S
N243        C252   1.346       .  A
N244        N245   1.328       .  A
N244       Mn248   2.222   1_556  S
N245        C252   1.358       .  A
N246        N247   1.312       .  A
N246       Mn249   2.188       .  S
N247        C251   1.345       .  A
Mn248      Cl250   2.602       .  S
Mn249      Cl250   2.490   1_556  S
C252        C497   1.465       .  S
N253        N254   1.318       .  A
N253        N259   1.312       .  A
N253       Mn282   2.184       .  S
N254        C261   1.349       .  A
N255        N257   1.313       .  A
N255        N256   1.320       .  A
N255       Mn271   2.193       .  S
N256        C262   1.350       .  A
N257        N258   1.321       .  A
N257       Mn282   2.200       .  S
N258        C262   1.354       .  A
N259        N260   1.319       .  A
N259       Mn271   2.181       .  S
N260        C261   1.349       .  A
C261       C1228   1.462       .  S
C262        C748   1.474       .  S
N263        N269   1.316       .  A
N263        N264   1.327       .  A
N263       Mn293   2.216       .  S
N264        C272   1.357       .  A
N265        N266   1.309       .  A
N265        N267   1.316       .  A
N265       Mn271   2.175       .  S
N266        C273   1.343       .  A
N267        N268   1.329       .  A
N267       Mn293   2.220       .  S
N268        C273   1.359       .  A
N269        N270   1.309       .  A
N269       Mn271   2.172       .  S
N270        C272   1.343       .  A
Mn271      Cl295   2.482       .  S
C272        C352   1.456       .  S
C273        C341   1.460       .  S
N274        N275   1.320       .  A
N274        N280   1.313       .  A
N274       Mn282   2.189   1_655  S
N275        C283   1.351       .  A
N276        N278   1.314       .  A
N276        N277   1.321       .  A
N276       Mn294   2.178       .  S
N277        C284   1.348       .  A
N278        N279   1.319       .  A
N278       Mn282   2.198   1_655  S
N279        C284   1.352       .  A
N280        N281   1.320       .  A
N280       Mn294   2.195       .  S
N281        C283   1.350       .  A
Mn282      Cl295   2.578       .  S
C283        C688   1.466       .  S
C284       C1165   1.467       .  S
N285        N286   1.328       .  A
N285        N291   1.315       .  A
N285       Mn293   2.220   1_655  S
N286        C296   1.359       .  A
N287        N288   1.311       .  A
N287        N289   1.317       .  A
N287       Mn294   2.182       .  S
N288        C297   1.345       .  A
N289        N290   1.327       .  A
N289       Mn293   2.220   1_655  S
N290        C297   1.357       .  A
N291        N292   1.311       .  A
N291       Mn294   2.173       .  S
N292        C296   1.343       .  A
Mn293      Cl295   2.592       .  S
Mn294      Cl295   2.487   1_655  S
C296        C408   1.462       .  S
C297        C452   1.461       .  S
N298        N299   1.316       .  A
N298        N304   1.313       .  A
N298       Mn327   2.186       .  S
N299        C306   1.349       .  A
N300        N302   1.316       .  A
N300        N301   1.322       .  A
N300       Mn316   2.213       .  S
N301        C307   1.352       .  A
N302        N303   1.321       .  A
N302       Mn327   2.196       .  S
N303        C307   1.351       .  A
N304        N305   1.328       .  A
N304       Mn316   2.228       .  S
N305        C306   1.360       .  A
C306       C1300   1.488       .  S
C307        C925   1.472       .  S
N308        N314   1.318       .  A
N308        N309   1.327       .  A
N308       Mn338   2.208       .  S
N309        C317   1.355       .  A
N310        N311   1.315       .  A
N310        N312   1.319       .  A
N310       Mn316   2.204       .  S
N311        C318   1.349       .  A
N312        N313   1.326       .  A
N312       Mn338   2.220       .  S
N313        C318   1.355       .  A
N314        N315   1.314       .  A
N314       Mn316   2.205       .  S
N315        C317   1.349       .  A
Mn316      Cl340   2.510       .  S
N319        N320   1.320       .  A
N319        N325   1.312       .  A
N319       Mn327   2.190   1_545  S
N320        C328   1.352       .  A
N321        N323   1.314       .  A
N321        N322   1.320       .  A
N321       Mn339   2.180       .  S
N322        C329   1.348       .  A
N323        N324   1.320       .  A
N323       Mn327   2.208   1_545  S
N324        C329   1.353       .  A
N325        N326   1.318       .  A
N325       Mn339   2.185       .  S
N326        C328   1.350       .  A
Mn327      Cl340   2.570       .  S
C328       C1048   1.465       .  S
C329       C1237   1.469       .  S
N330        N331   1.328       .  A
N330        N336   1.315       .  A
N330       Mn338   2.207   1_545  S
N331        C341   1.357       .  A
N332        N333   1.311       .  A
N332        N334   1.316       .  A
N332       Mn339   2.174       .  S
N333        C342   1.343       .  A
N334        N335   1.329       .  A
N334       Mn338   2.232   1_545  S
N335        C342   1.361       .  A
N336        N337   1.310       .  A
N336       Mn339   2.181       .  S
N337        C341   1.346       .  A
Mn338      Cl340   2.594       .  S
Mn339      Cl340   2.498   1_545  S
C342        C351   1.466       .  S
N343        N344   1.328       .  A
N343        N349   1.319       .  A
N343       Mn372   2.214   1_554  S
N344        C351   1.356       .  A
N345        N347   1.316       .  A
N345        N346   1.311       .  A
N345       Mn361   2.182       .  S
N346        C352   1.346       .  A
N347        N348   1.325       .  A
N347       Mn372   2.204   1_554  S
N348        C352   1.355       .  A
N349        N350   1.313       .  A
N349       Mn361   2.204       .  S
N350        C351   1.348       .  A
N353        N359   1.314       .  A
N353        N354   1.321       .  A
N353       Mn383   2.200   1_554  S
N354        C362   1.351       .  A
N355        N356   1.320       .  A
N355        N357   1.314       .  A
N355       Mn361   2.199       .  S
N356        C363   1.351       .  A
N357        N358   1.320       .  A
N357       Mn383   2.194   1_554  S
N358        C363   1.352       .  A
N359        N360   1.323       .  A
N359       Mn361   2.207       .  S
N360        C362   1.353       .  A
Mn361      Cl385   2.494   1_554  S
C362        C757   1.474       .  S
C363       C1057   1.467       .  S
N364        N365   1.326       .  A
N364        N370   1.314       .  A
N364       Mn372   2.205       .  S
N365        C373   1.356       .  A
N366        N368   1.317       .  A
N366        N367   1.312       .  A
N366       Mn384   2.190       .  S
N367        C374   1.346       .  A
N368        N369   1.328       .  A
N368       Mn372   2.220       .  S
N369        C374   1.358       .  A
N370        N371   1.308       .  A
N370       Mn384   2.169       .  S
N371        C373   1.344       .  A
Mn372      Cl385   2.590       .  S
N375        N376   1.322       .  A
N375        N381   1.314       .  A
N375       Mn383   2.210       .  S
N376        C386   1.355       .  A
N377        N378   1.323       .  A
N377        N379   1.313       .  A
N377       Mn384   2.196       .  S
N378        C387   1.352       .  A
N379        N380   1.320       .  A
N379       Mn383   2.195       .  S
N380        C387   1.351       .  A
N381        N382   1.320       .  A
N381       Mn384   2.188       .  S
N382        C386   1.349       .  A
Mn383      Cl385   2.576       .  S
Mn384      Cl385   2.494       .  S
C386        C997   1.476       .  S
C387        C817   1.479       .  S
N388        N389   1.317       .  A
N388        N394   1.314       .  A
N388       Mn417   2.188   1_545  S
N389        C396   1.350       .  A
N390        N392   1.315       .  A
N390        N391   1.321       .  A
N390       Mn406   2.201       .  S
N391        C397   1.351       .  A
N392        N393   1.320       .  A
N392       Mn417   2.193   1_545  S
N393        C397   1.351       .  A
N394        N395   1.324       .  A
N394       Mn406   2.212       .  S
N395        C396   1.356       .  A
C396       C1177   1.480       .  S
C397       C1024   1.467       .  S
N398        N404   1.317       .  A
N398        N399   1.328       .  A
N398       Mn428   2.215   1_545  S
N399        C407   1.357       .  A
N400        N401   1.313       .  A
N400        N402   1.318       .  A
N400       Mn406   2.201       .  S
N401        C408   1.349       .  A
N402        N403   1.325       .  A
N402       Mn428   2.208   1_545  S
N403        C408   1.354       .  A
N404        N405   1.312       .  A
N404       Mn406   2.192       .  S
N405        C407   1.346       .  A
Mn406      Cl430   2.498   1_545  S
C407        C453   1.464       .  S
N409        N410   1.320       .  A
N409        N415   1.313       .  A
N409       Mn417   2.190       .  S
N410        C418   1.351       .  A
N411        N413   1.314       .  A
N411        N412   1.323       .  A
N411       Mn429   2.209       .  S
N412        C419   1.354       .  A
N413        N414   1.322       .  A
N413       Mn417   2.206       .  S
N414        C419   1.354       .  A
N415        N416   1.322       .  A
N415       Mn429   2.200       .  S
N416        C418   1.352       .  A
Mn417      Cl430   2.581       .  S
C418        C901   1.479       .  S
C419       C1120   1.488       .  S
N420        N421   1.327       .  A
N420        N426   1.316       .  A
N420       Mn428   2.216       .  S
N421        C431   1.357       .  A
N422        N423   1.311       .  A
N422        N424   1.316       .  A
N422       Mn429   2.190       .  S
N423        C432   1.346       .  A
N424        N425   1.328       .  A
N424       Mn428   2.215       .  S
N425        C432   1.358       .  A
N426        N427   1.311       .  A
N426       Mn429   2.184       .  S
N427        C431   1.346       .  A
Mn428      Cl430   2.591       .  S
Mn429      Cl430   2.496       .  S
C432        C576   1.465       .  S
N433        N434   1.321       .  A
N433        N439   1.314       .  A
N433       Mn462   2.201   1_554  S
N434        C441   1.353       .  A
N435        N437   1.314       .  A
N435        N436   1.322       .  A
N435       Mn451   2.205       .  S
N436        C442   1.353       .  A
N437        N438   1.321       .  A
N437       Mn462   2.192   1_554  S
N438        C442   1.351       .  A
N439        N440   1.320       .  A
N439       Mn451   2.194       .  S
N440        C441   1.350       .  A
C441       C1036   1.470       .  S
C442        C697   1.475       .  S
N443        N449   1.316       .  A
N443        N444   1.327       .  A
N443       Mn473   2.216   1_554  S
N444        C452   1.357       .  A
N445        N446   1.312       .  A
N445        N447   1.317       .  A
N445       Mn451   2.189       .  S
N446        C453   1.345       .  A
N447        N448   1.328       .  A
N447       Mn473   2.218   1_554  S
N448        C453   1.358       .  A
N449        N450   1.311       .  A
N449       Mn451   2.179       .  S
N450        C452   1.345       .  A
Mn451      Cl475   2.490   1_554  S
N454        N455   1.320       .  A
N454        N460   1.314       .  A
N454       Mn462   2.194       .  S
N455        C463   1.351       .  A
N456        N458   1.314       .  A
N456        N457   1.317       .  A
N456       Mn474   2.180       .  S
N457        C464   1.348       .  A
N458        N459   1.318       .  A
N458       Mn462   2.189       .  S
N459        C464   1.351       .  A
N460        N461   1.319       .  A
N460       Mn474   2.193       .  S
N461        C463   1.352       .  A
Mn462      Cl475   2.576       .  S
C463        C652   1.472       .  S
C464        C976   1.455       .  S
N465        N466   1.330       .  A
N465        N471   1.318       .  A
N465       Mn473   2.230       .  S
N466        C476   1.360       .  A
N467        N468   1.309       .  A
N467        N469   1.316       .  A
N467       Mn474   2.177       .  S
N468        C477   1.345       .  A
N469        N470   1.325       .  A
N469       Mn473   2.203       .  S
N470        C477   1.355       .  A
N471        N472   1.313       .  A
N471       Mn474   2.192       .  S
N472        C476   1.346       .  A
Mn473      Cl475   2.598       .  S
Mn474      Cl475   2.494       .  S
C476        C532   1.471       .  S
N478        N479   1.322       .  A
N478        N484   1.313       .  A
N478       Mn507   2.201       .  S
N479        C486   1.352       .  A
N480        N482   1.314       .  A
N480        N481   1.318       .  A
N480       Mn496   2.177       .  S
N481        C487   1.346       .  A
N482        N483   1.321       .  A
N482       Mn507   2.210       .  S
N483        C487   1.355       .  A
N484        N485   1.321       .  A
N484       Mn496   2.198       .  S
N485        C486   1.352       .  A
C486       C1264   1.473       .  S
C487        C784   1.463       .  S
N488        N494   1.317       .  A
N488        N489   1.327       .  A
N488       Mn518   2.213       .  S
N489        C497   1.357       .  A
N490        N491   1.308       .  A
N490        N492   1.316       .  A
N490       Mn496   2.167       .  S
N491        C498   1.343       .  A
N492        N493   1.328       .  A
N492       Mn518   2.221       .  S
N493        C498   1.359       .  A
N494        N495   1.313       .  A
N494       Mn496   2.197       .  S
N495        C497   1.347       .  A
Mn496      Cl520   2.491       .  S
N499        N500   1.322       .  A
N499        N505   1.313       .  A
N499       Mn507   2.204   1_655  S
N500        C508   1.354       .  A
N501        N503   1.314       .  A
N501        N502   1.320       .  A
N501       Mn519   2.189       .  S
N502        C509   1.349       .  A
N503        N504   1.322       .  A
N503       Mn507   2.208   1_655  S
N504        C509   1.354       .  A
N505        N506   1.318       .  A
N505       Mn519   2.186       .  S
N506        C508   1.350       .  A
Mn507      Cl520   2.573       .  S
C508        C616   1.471       .  S
C509       C1096   1.470       .  S
N510        N511   1.326       .  A
N510        N516   1.315       .  A
N510       Mn518   2.208   1_655  S
N511        C521   1.357       .  A
N512        N513   1.311       .  A
N512        N514   1.317       .  A
N512       Mn519   2.186       .  S
N513        C522   1.345       .  A
N514        N515   1.330       .  A
N514       Mn518   2.228   1_655  S
N515        C522   1.359       .  A
N516        N517   1.310       .  A
N516       Mn519   2.176       .  S
N517        C521   1.344       .  A
Mn518      Cl520   2.601       .  S
Mn519      Cl520   2.491   1_655  S
C521        C554   1.456       .  S
C522        C598   1.468       .  S
N523        N524   1.327       .  A
N523        N529   1.318       .  A
N523       Mn552   2.211   1_545  S
N524        C531   1.355       .  A
N525        N527   1.317       .  A
N525        N526   1.314       .  A
N525       Mn541   2.199       .  S
N526        C532   1.347       .  A
N527        N528   1.329       .  A
N527       Mn552   2.217   1_545  S
N528        C532   1.358       .  A
N529        N530   1.313       .  A
N529       Mn541   2.198       .  S
N530        C531   1.349       .  A
N533        N539   1.315       .  A
N533        N534   1.322       .  A
N533       Mn563   2.209   1_545  S
N534        C542   1.355       .  A
N535        N536   1.320       .  A
N535        N537   1.313       .  A
N535       Mn541   2.211       .  S
N536        C543   1.357       .  A
N537        N538   1.321       .  A
N537       Mn563   2.191   1_545  S
N538        C543   1.353       .  A
N539        N540   1.318       .  A
N539       Mn541   2.192       .  S
N540        C542   1.350       .  A
Mn541      Cl565   2.500   1_545  S
C542        C964   1.474       .  S
C543       C1153   1.488       .  S
N544        N545   1.327       .  A
N544        N550   1.319       .  A
N544       Mn552   2.222       .  S
N545        C553   1.356       .  A
N546        N548   1.315       .  A
N546        N547   1.310       .  A
N546       Mn564   2.179       .  S
N547        C554   1.345       .  A
N548        N549   1.326       .  A
N548       Mn552   2.204       .  S
N549        C554   1.355       .  A
N550        N551   1.315       .  A
N550       Mn564   2.205       .  S
N551        C553   1.349       .  A
Mn552      Cl565   2.595       .  S
C553        C599   1.470       .  S
N555        N556   1.324       .  A
N555        N561   1.315       .  A
N555       Mn563   2.208       .  S
N556        C566   1.353       .  A
N557        N558   1.323       .  A
N557        N559   1.313       .  A
N557       Mn564   2.202       .  S
N558        C567   1.353       .  A
N559        N560   1.321       .  A
N559       Mn563   2.204       .  S
N560        C567   1.354       .  A
N561        N562   1.322       .  A
N561       Mn564   2.210       .  S
N562        C566   1.352       .  A
Mn563      Cl565   2.576       .  S
Mn564      Cl565   2.504       .  S
C566       C1105   1.478       .  S
C567        C856   1.477       .  S
N568        N569   1.329       .  A
N568        N574   1.318       .  A
N568       Mn597   2.226   1_554  S
N569        C576   1.358       .  A
N570        N572   1.317       .  A
N570        N571   1.313       .  A
N570       Mn586   2.189       .  S
N571        C577   1.345       .  A
N572        N573   1.329       .  A
N572       Mn597   2.228   1_554  S
N573        C577   1.359       .  A
N574        N575   1.311       .  A
N574       Mn586   2.185       .  S
N575        C576   1.344       .  A
N578        N584   1.314       .  A
N578        N579   1.321       .  A
N578       Mn608   2.203       .  S
N579        C587   1.353       .  A
N580        N581   1.320       .  A
N580        N582   1.314       .  A
N580       Mn586   2.196       .  S
N581        C588   1.351       .  A
N582        N583   1.319       .  A
N582       Mn608   2.193       .  S
N583        C588   1.353       .  A
N584        N585   1.319       .  A
N584       Mn586   2.186       .  S
N585        C587   1.349       .  A
Mn586      Cl610   2.498       .  S
C587        C673   1.464       .  S
C588        C916   1.466       .  S
N589        N590   1.329       .  A
N589        N595   1.317       .  A
N589       Mn597   2.225       .  S
N590        C598   1.359       .  A
N591        N593   1.318       .  A
N591        N592   1.314       .  A
N591       Mn609   2.192       .  S
N592        C599   1.346       .  A
N593        N594   1.328       .  A
N593       Mn597   2.232       .  S
N594        C599   1.359       .  A
N595        N596   1.312       .  A
N595       Mn609   2.188       .  S
N596        C598   1.346       .  A
Mn597      Cl610   2.602   1_556  S
N600        N601   1.325       .  A
N600        N606   1.314       .  A
N600       Mn608   2.217   1_556  S
N601        C611   1.357       .  A
N602        N603   1.321       .  A
N602        N604   1.314       .  A
N602       Mn609   2.203       .  S
N603        C612   1.352       .  A
N604        N605   1.322       .  A
N604       Mn608   2.196   1_556  S
N605        C612   1.351       .  A
N606        N607   1.321       .  A
N606       Mn609   2.205       .  S
N607        C611   1.353       .  A
Mn608      Cl610   2.580       .  S
Mn609      Cl610   2.497   1_556  S
C611        C868   1.488       .  S
C612        C628   1.471       .  S
C613        C614   1.406       .  A
C613        C618   1.418       .  A
C614        C615   1.391       .  A
C614        H623   1.069       .  S
C615        C616   1.408       .  A
C615        S619   1.807       .  S
C616        C617   1.400       .  A
C617        C618   1.407       .  A
C617        H624   1.083       .  S
C618        S620   1.799       .  S
S619        H622   1.404       .  S
S620        H621   1.406       .  S
C625        C626   1.403       .  A
C625        C630   1.409       .  A
C626        C627   1.398       .  A
C626        H635   1.082       .  S
C627        C628   1.410       .  A
C627        S631   1.804       .  S
C628        C629   1.405       .  A
C629        C630   1.402       .  A
C629        H636   1.084       .  S
C630        S632   1.804       .  S
S631        H634   1.404       .  S
S632        H633   1.401       .  S
C637        C638   1.395       .  A
C637        C642   1.411       .  A
C638        C639   1.396       .  A
C638        H647   1.084       .  S
C639        C640   1.420       .  A
C639        S643   1.805       .  S
C640        C641   1.407       .  A
C641        C642   1.398       .  A
C641        H648   1.084       .  S
C642        S644   1.805       .  S
S643        H646   1.395       .  S
S644        H645   1.405       .  S
C649        C650   1.406       .  A
C649        C654   1.423       .  A
C650        C651   1.394       .  A
C650        H659   1.076       .  S
C651        C652   1.409       .  A
C651        S655   1.803       .  S
C652        C653   1.399       .  A
C653        C654   1.401       .  A
C653        H660   1.084       .  S
C654        S656   1.802       .  S
S655        H658   1.407       .  S
S656        H657   1.396       .  S
C661        C662   1.398       .  A
C661        C666   1.416       .  A
C662        C663   1.399       .  A
C662        H671   1.071       .  S
C663        C664   1.409       .  A
C663        S667   1.800       .  S
C664        C665   1.399       .  A
C665        C666   1.402       .  A
C665        H672   1.084       .  S
C666        S668   1.790       .  S
S667        H670   1.405       .  S
S668        H669   1.404       .  S
C673        C674   1.399       .  A
C673        C678   1.407       .  A
C674        C675   1.396       .  A
C674        H683   1.085       .  S
C675        C676   1.411       .  A
C675        S679   1.791       .  S
C676        C677   1.406       .  A
C677        C678   1.399       .  A
C677        H684   1.081       .  S
C678        S680   1.803       .  S
S679        H682   1.403       .  S
S680        H681   1.405       .  S
C685        C686   1.402       .  A
C685        C690   1.423       .  A
C686        C687   1.395       .  A
C686        H695   1.080       .  S
C687        C688   1.407       .  A
C687        S691   1.795       .  S
C688        C689   1.395       .  A
C689        C690   1.399       .  A
C689        H696   1.084       .  S
C690        S692   1.801       .  S
S691        H694   1.406       .  S
S692        H693   1.389       .  S
C697        C698   1.398       .  A
C697        C702   1.411       .  A
C698        C699   1.400       .  A
C698        H707   1.084       .  S
C699        C700   1.421       .  A
C699        S703   1.803       .  S
C700        C701   1.408       .  A
C701        C702   1.399       .  A
C701        H708   1.082       .  S
C702        S704   1.803       .  S
S703        H706   1.395       .  S
S704        H705   1.407       .  S
C709        C710   1.407       .  A
C709        C714   1.428       .  A
C710        C711   1.398   1_554  A
C710        H719   1.075       .  S
C711        C712   1.416       .  A
C711        S715   1.808       .  S
C712        C713   1.411       .  A
C713        C714   1.418   1_556  A
C713        H720   1.081       .  S
C714        S716   1.795       .  S
S715        H718   1.408       .  S
S716        H717   1.392       .  S
C721        C722   1.407       .  A
C721        C726   1.415       .  A
C722        C723   1.399       .  A
C722        H731   1.084       .  S
C723        C724   1.408       .  A
C723        S727   1.803       .  S
C724        C725   1.400       .  A
C725        C726   1.400       .  A
C725        H732   1.082       .  S
C726        S728   1.800       .  S
S727        H730   1.406       .  S
S728        H729   1.398       .  S
C733        C734   1.406       .  A
C733        C738   1.411       .  A
C734        C735   1.397       .  A
C734        H743   1.080       .  S
C735        C736   1.406       .  A
C735        S739   1.803       .  S
C736        C737   1.402       .  A
C737        C738   1.400       .  A
C737        H744   1.084       .  S
C738        S740   1.793       .  S
S739        H742   1.406       .  S
S740        H741   1.404       .  S
C745        C746   1.403       .  A
C745        C750   1.420       .  A
C746        C747   1.397       .  A
C746        H755   1.081       .  S
C747        C748   1.411       .  A
C747        S751   1.801       .  S
C748        C749   1.399       .  A
C749        C750   1.401       .  A
C749        H756   1.084       .  S
C750        S752   1.806       .  S
S751        H754   1.406       .  S
S752        H753   1.398       .  S
C757        C758   1.398       .  A
C757        C762   1.413       .  A
C758        C759   1.401       .  A
C758        H767   1.084       .  S
C759        C760   1.419       .  A
C759        S763   1.805       .  S
C760        C761   1.403       .  A
C761        C762   1.400       .  A
C761        H768   1.083       .  S
C762        S764   1.802       .  S
S763        H766   1.395       .  S
S764        H765   1.402       .  S
C769        C770   1.398       .  A
C769        C774   1.425       .  A
C770        C771   1.397   1_455  A
C770        H779   1.082       .  S
C771        C772   1.415       .  A
C771        S775   1.795       .  S
C772        C773   1.407       .  A
C773        C774   1.419   1_655  A
C773        H780   1.083       .  S
C774        S776   1.799       .  S
S775        H778   1.406   1_655  S
S776        H777   1.394       .  S
C781        C782   1.401       .  A
C781        C786   1.418       .  A
C782        C783   1.396       .  A
C782        H791   1.081       .  S
C783        C784   1.413       .  A
C783        S787   1.806       .  S
C784        C785   1.399       .  A
C785        C786   1.399       .  A
C785        H792   1.084       .  S
C786        S788   1.807       .  S
S787        H790   1.400       .  S
S788        H789   1.398       .  S
C793        C794   1.405       .  A
C793        C798   1.413       .  A
C794        C795   1.398       .  A
C794        H803   1.080       .  S
C795        C796   1.407       .  A
C795        S799   1.804       .  S
C796        C797   1.405       .  A
C797        C798   1.405       .  A
C797        H804   1.084       .  S
C798        S800   1.802       .  S
S799        H802   1.405       .  S
S800        H801   1.401       .  S
C805        C806   1.411       .  A
C805        C810   1.425       .  A
C806        C807   1.402       .  A
C806        H815   1.074       .  S
C807        C808   1.413       .  A
C807        S811   1.801       .  S
C808        C809   1.400       .  A
C809        C810   1.398       .  A
C809        H816   1.084       .  S
C810        S812   1.792       .  S
S811        H814   1.407       .  S
S812        H813   1.401       .  S
C817        C818   1.398       .  A
C817        C822   1.419       .  A
C818        C819   1.394       .  A
C818        H827   1.084       .  S
C819        C820   1.417       .  A
C819        S823   1.800       .  S
C820        C821   1.405       .  A
C821        C822   1.406       .  A
C821        H828   1.084       .  S
C822        S824   1.804       .  S
S823        H826   1.405       .  S
S824        H825   1.403       .  S
C829        C830   1.408       .  A
C829        C834   1.412       .  A
C830        C831   1.412   1_556  A
C830        H839   1.082       .  S
C831        C832   1.418       .  A
C831        S835   1.798       .  S
C832        C833   1.406       .  A
C833        C834   1.404   1_554  A
C833        H840   1.082       .  S
C834        S836   1.809       .  S
S835        H838   1.403       .  S
S836        H837   1.406       .  S
C841        C842   1.417       .  A
C841        C846   1.419       .  A
C842        C843   1.409   1_455  A
C842        H851   1.079       .  S
C843        C844   1.417       .  A
C843        S847   1.805       .  S
C844        C845   1.418       .  A
C845        C846   1.398   1_655  A
C845        H852   1.063       .  S
C846        S848   1.804       .  S
S847        H850   1.403       .  S
S848        H849   1.393       .  S
C853        C854   1.404       .  A
C853        C858   1.418       .  A
C854        C855   1.393       .  A
C854        H863   1.080       .  S
C855        C856   1.407       .  A
C855        S859   1.796       .  S
C856        C857   1.403       .  A
C857        C858   1.408       .  A
C857        H864   1.083       .  S
C858        S860   1.804       .  S
S859        H862   1.406       .  S
S860        H861   1.406       .  S
C865        C866   1.413       .  A
C865        C870   1.426       .  A
C866        C867   1.405       .  A
C866        H875   1.084       .  S
C867        C868   1.410       .  A
C867        S871   1.802       .  S
C868        C869   1.402       .  A
C869        C870   1.402       .  A
C869        H876   1.084       .  S
C870        S872   1.803       .  S
S871        H874   1.406       .  S
S872        H873   1.387       .  S
C877        C878   1.407       .  A
C877        C882   1.416       .  A
C878        C879   1.403       .  A
C878        H887   1.084       .  S
C879        C880   1.409       .  A
C879        S883   1.803       .  S
C880        C881   1.398       .  A
C881        C882   1.397       .  A
C881        H888   1.081       .  S
C882        S884   1.800       .  S
S883        H886   1.405       .  S
S884        H885   1.393       .  S
C889        C890   1.402       .  A
C889        C894   1.411       .  A
C890        C891   1.402       .  A
C890        H899   1.084       .  S
C891        C892   1.413       .  A
C891        S895   1.794       .  S
C892        C893   1.406       .  A
C893        C894   1.404       .  A
C893        H900   1.084       .  S
C894        S896   1.803       .  S
S895        H898   1.402       .  S
S896        H897   1.405       .  S
C901        C902   1.399       .  A
C901        C906   1.414       .  A
C902        C903   1.398       .  A
C902        H911   1.084       .  S
C903        C904   1.419       .  A
C903        S907   1.805       .  S
C904        C905   1.407       .  A
C905        C906   1.400       .  A
C905        H912   1.081       .  S
C906        S908   1.803       .  S
S907        H910   1.401       .  S
S908        H909   1.406       .  S
C913        C914   1.401       .  A
C913        C918   1.417       .  A
C914        C915   1.388       .  A
C914        H923   1.075       .  S
C915        C916   1.406       .  A
C915        S919   1.797       .  S
C916        C917   1.401       .  A
C917        C918   1.403       .  A
C917        H924   1.084       .  S
C918        S920   1.801       .  S
S919        H922   1.406       .  S
S920        H921   1.406       .  S
C925        C926   1.403       .  A
C925        C930   1.407       .  A
C926        C927   1.402       .  A
C926        H935   1.084       .  S
C927        C928   1.413       .  A
C927        S931   1.798       .  S
C928        C929   1.407       .  A
C929        C930   1.398       .  A
C929        H936   1.083       .  S
C930        S932   1.804       .  S
S931        H934   1.400       .  S
S932        H933   1.406       .  S
C937        C938   1.400       .  A
C937        C942   1.407       .  A
C938        C939   1.395       .  A
C938        H947   1.085       .  S
C939        C940   1.410       .  A
C939        S943   1.794       .  S
C940        C941   1.406       .  A
C941        C942   1.398       .  A
C941        H948   1.084       .  S
C942        S944   1.803       .  S
S943        H946   1.403       .  S
S944        H945   1.406       .  S
C949        C950   1.418       .  A
C949        C954   1.410       .  A
C950        C951   1.426   1_556  A
C950        H959   1.082       .  S
C951        C952   1.419       .  A
C951        S955   1.797       .  S
C952        C953   1.382       .  A
C953        C954   1.381   1_554  A
C953        H960   1.064       .  S
C954        S956   1.780       .  S
S955        H958   1.406       .  S
S956        H957   1.407       .  S
C961        C962   1.411       .  A
C961        C966   1.418       .  A
C962        C963   1.397       .  A
C962        H971   1.082       .  S
C963        C964   1.406       .  A
C963        S967   1.803       .  S
C964        C965   1.402       .  A
C965        C966   1.399       .  A
C965        H972   1.084       .  S
C966        S968   1.801       .  S
S967        H970   1.406       .  S
S968        H969   1.390       .  S
C973        C974   1.400       .  A
C973        C978   1.420       .  A
C974        C975   1.392       .  A
C974        H983   1.083       .  S
C975        C976   1.405       .  A
C975        S979   1.796       .  S
C976        C977   1.392       .  A
C977        C978   1.394       .  A
C977        H984   1.084       .  S
C978        S980   1.796       .  S
S979        H982   1.405       .  S
S980        H981   1.388       .  S
C985        C986   1.394       .  A
C985        C990   1.409       .  A
C986        C987   1.395       .  A
C986        H995   1.084       .  S
C987        C988   1.419       .  A
C987        S991   1.804       .  S
C988        C989   1.400       .  A
C989        C990   1.396       .  A
C989        H996   1.082       .  S
C990        S992   1.802       .  S
S991        H994   1.389       .  S
S992        H993   1.404       .  S
C997        C998   1.398       .  A
C997       C1002   1.416       .  A
C998        C999   1.399       .  A
C998       H1007   1.084       .  S
C999       C1000   1.418       .  A
C999       S1003   1.794       .  S
C1000      C1001   1.404       .  A
C1001      C1002   1.400       .  A
C1001      H1008   1.078       .  S
C1002      S1004   1.809       .  S
S1003      H1006   1.398       .  S
S1004      H1005   1.402       .  S
C1009      C1010   1.416       .  A
C1009      C1014   1.407       .  A
C1010      C1011   1.426   1_545  A
C1010      H1019   1.083       .  S
C1011      C1012   1.419       .  A
C1011      S1015   1.800       .  S
C1012      C1013   1.390       .  A
C1013      C1014   1.386   1_565  A
C1013      H1020   1.063       .  S
C1014      S1016   1.795       .  S
S1015      H1018   1.404       .  S
S1016      H1017   1.407   1_545  S
C1021      C1022   1.401       .  A
C1021      C1026   1.413       .  A
C1022      C1023   1.397       .  A
C1022      H1031   1.079       .  S
C1023      C1024   1.411       .  A
C1023      S1027   1.804       .  S
C1024      C1025   1.398       .  A
C1025      C1026   1.399       .  A
C1025      H1032   1.084       .  S
C1026      S1028   1.798       .  S
S1027      H1030   1.404   1_545  S
S1028      H1029   1.400       .  S
C1033      C1034   1.405       .  A
C1033      C1038   1.411       .  A
C1034      C1035   1.398       .  A
C1034      H1043   1.081       .  S
C1035      C1036   1.407       .  A
C1035      S1039   1.803       .  S
C1036      C1037   1.402       .  A
C1037      C1038   1.400       .  A
C1037      H1044   1.083       .  S
C1038      S1040   1.805       .  S
S1039      H1042   1.406       .  S
S1040      H1041   1.401       .  S
C1045      C1046   1.405       .  A
C1045      C1050   1.416       .  A
C1046      C1047   1.398       .  A
C1046      H1055   1.083       .  S
C1047      C1048   1.407       .  A
C1047      S1051   1.803       .  S
C1048      C1049   1.398       .  A
C1049      C1050   1.395       .  A
C1049      H1056   1.085       .  S
C1050      S1052   1.792       .  S
S1051      H1054   1.406       .  S
S1052      H1053   1.394       .  S
C1057      C1058   1.397       .  A
C1057      C1062   1.407       .  A
C1058      C1059   1.400       .  A
C1058      H1067   1.084       .  S
C1059      C1060   1.419       .  A
C1059      S1063   1.798       .  S
C1060      C1061   1.399       .  A
C1061      C1062   1.393       .  A
C1061      H1068   1.079       .  S
C1062      S1064   1.792       .  S
S1063      H1066   1.398       .  S
S1064      H1065   1.406       .  S
C1069      C1070   1.393       .  A
C1069      C1074   1.417       .  A
C1070      C1071   1.387   1_545  A
C1070      H1079   1.082       .  S
C1071      C1072   1.422       .  A
C1071      S1075   1.787       .  S
C1072      C1073   1.414       .  A
C1073      C1074   1.422   1_565  A
C1073      H1080   1.080       .  S
C1074      S1076   1.798       .  S
S1075      H1078   1.387       .  S
S1076      H1077   1.406   1_545  S
C1081      C1082   1.399       .  A
C1081      C1086   1.428       .  A
C1082      C1083   1.392   1_556  A
C1082      H1091   1.080       .  S
C1083      C1084   1.411       .  A
C1083      S1087   1.790       .  S
C1084      C1085   1.410       .  A
C1085      C1086   1.422   1_554  A
C1085      H1092   1.082       .  S
C1086      S1088   1.801       .  S
S1087      H1090   1.404       .  S
S1088      H1089   1.392       .  S
C1093      C1094   1.405       .  A
C1093      C1098   1.414       .  A
C1094      C1095   1.398       .  A
C1094      H1103   1.084       .  S
C1095      C1096   1.408       .  A
C1095      S1099   1.803       .  S
C1096      C1097   1.403       .  A
C1097      C1098   1.401       .  A
C1097      H1104   1.081       .  S
C1098      S1100   1.807       .  S
S1099      H1102   1.404       .  S
S1100      H1101   1.401       .  S
C1105      C1106   1.405       .  A
C1105      C1110   1.408       .  A
C1106      C1107   1.406       .  A
C1106      H1115   1.084       .  S
C1107      C1108   1.416       .  A
C1107      S1111   1.803       .  S
C1108      C1109   1.406       .  A
C1109      C1110   1.400       .  A
C1109      H1116   1.084       .  S
C1110      S1112   1.803       .  S
S1111      H1114   1.398       .  S
S1112      H1113   1.405       .  S
C1117      C1118   1.409       .  A
C1117      C1122   1.424       .  A
C1118      C1119   1.405       .  A
C1118      H1127   1.084       .  S
C1119      C1120   1.414       .  A
C1119      S1123   1.802       .  S
C1120      C1121   1.404       .  A
C1121      C1122   1.404       .  A
C1121      H1128   1.084       .  S
C1122      S1124   1.796       .  S
S1123      H1126   1.406       .  S
S1124      H1125   1.384       .  S
C1129      C1130   1.402       .  A
C1129      C1134   1.419       .  A
C1130      C1131   1.404       .  A
C1130      H1139   1.084       .  S
C1131      C1132   1.420       .  A
C1131      S1135   1.793       .  S
C1132      C1133   1.408       .  A
C1133      C1134   1.404       .  A
C1133      H1140   1.072       .  S
C1134      S1136   1.799       .  S
S1135      H1138   1.408       .  S
S1136      H1137   1.408       .  S
C1141      C1142   1.408       .  A
C1141      C1146   1.422       .  A
C1142      C1143   1.407       .  A
C1142      H1151   1.084       .  S
C1143      C1144   1.413       .  A
C1143      S1147   1.802       .  S
C1144      C1145   1.385       .  A
C1145      C1146   1.389       .  A
C1145      H1152   1.083       .  S
C1146      S1148   1.795       .  S
S1147      H1150   1.406       .  S
S1148      H1149   1.406       .  S
C1153      C1154   1.403       .  A
C1153      C1158   1.423       .  A
C1154      C1155   1.394       .  A
C1154      H1163   1.083       .  S
C1155      C1156   1.408       .  A
C1155      S1159   1.794       .  S
C1156      C1157   1.412       .  A
C1157      C1158   1.414       .  A
C1157      H1164   1.083       .  S
C1158      S1160   1.801       .  S
S1159      H1162   1.408       .  S
S1160      H1161   1.407       .  S
C1165      C1166   1.384       .  A
C1165      C1170   1.415       .  A
C1166      C1167   1.384       .  A
C1166      H1175   1.086       .  S
C1167      C1168   1.420       .  A
C1167      S1171   1.781       .  S
C1168      C1169   1.409       .  A
C1169      C1170   1.409       .  A
C1169      H1176   1.083       .  S
C1170      S1172   1.802       .  S
S1171      H1174   1.396       .  S
S1172      H1173   1.406       .  S
C1177      C1178   1.397       .  A
C1177      C1182   1.405       .  A
C1178      C1179   1.409       .  A
C1178      H1187   1.083       .  S
C1179      C1180   1.424       .  A
C1179      S1183   1.796       .  S
C1180      C1181   1.398       .  A
C1181      C1182   1.387       .  A
C1181      H1188   1.071       .  S
C1182      S1184   1.776   1_545  S
S1183      H1186   1.407       .  S
S1184      H1185   1.408       .  S
C1189      C1190   1.409       .  A
C1189      C1194   1.426       .  A
C1190      C1191   1.413   1_545  A
C1190      H1199   1.063       .  S
C1191      C1192   1.417       .  A
C1191      S1195   1.803       .  S
C1192      C1193   1.405       .  A
C1193      C1194   1.413   1_565  A
C1193      H1200   1.082       .  S
C1194      S1196   1.789       .  S
S1195      H1198   1.405   1_565  S
S1196      H1197   1.408       .  S
C1201      C1202   1.411       .  A
C1201      C1206   1.432       .  A
C1202      C1203   1.396       .  A
C1202      H1211   1.057       .  S
C1203      C1204   1.404       .  A
C1203      S1207   1.804       .  S
C1204      C1205   1.394       .  A
C1205      C1206   1.398       .  A
C1205      H1212   1.084       .  S
C1206      S1208   1.802       .  S
S1207      H1210   1.408       .  S
S1208      H1209   2.889       .  S
C1213      C1214   1.698       .  A
C1213      C1218   1.704       .  A
C1214      C1215   1.678       .  A
C1214      H1223   1.072       .  S
C1215      C1216   1.689       .  A
C1215      S1219   1.795       .  S
C1216      C1217   1.691       .  A
C1217      C1218   1.689       .  A
C1217      H1224   1.082       .  S
C1218      S1220   1.796       .  S
S1219      H1222   1.405       .  S
S1220      H1221   1.404       .  S
C1225      C1226   1.403       .  A
C1225      C1230   1.415       .  A
C1226      C1227   1.398       .  A
C1226      H1235   1.081       .  S
C1227      C1228   1.412       .  A
C1227      S1231   1.804       .  S
C1228      C1229   1.394       .  A
C1229      C1230   1.392       .  A
C1229      H1236   1.084       .  S
C1230      S1232   1.802       .  S
S1231      H1234   1.406       .  S
S1232      H1233   1.401       .  S
C1237      C1238   1.398       .  A
C1237      C1242   1.415       .  A
C1238      C1239   1.398       .  A
C1238      H1247   1.084       .  S
C1239      C1240   1.415       .  A
C1239      S1243   1.803       .  S
C1240      C1241   1.401       .  A
C1241      C1242   1.399       .  A
C1241      H1248   1.084       .  S
C1242      S1244   1.806       .  S
S1243      H1246   1.401       .  S
S1244      H1245   1.403       .  S
C1249      C1250   1.409       .  A
C1249      C1254   1.417       .  A
C1250      C1251   1.407   1_655  A
C1250      H1259   1.070       .  S
C1251      C1252   1.422       .  A
C1251      S1255   1.809       .  S
C1252      C1253   1.408       .  A
C1253      C1254   1.413   1_455  A
C1253      H1260   1.071       .  S
C1254      S1256   1.782       .  S
S1255      H1258   1.385       .  S
S1256      H1257   1.407       .  S
C1261      C1262   1.404       .  A
C1261      C1266   1.420       .  A
C1262      C1263   1.400       .  A
C1262      H1271   1.076       .  S
C1263      C1264   1.411       .  A
C1263      S1267   1.806       .  S
C1264      C1265   1.399       .  A
C1265      C1266   1.402       .  A
C1265      H1272   1.084       .  S
C1266      S1268   1.800       .  S
S1267      H1270   1.404       .  S
S1268      H1269   1.398       .  S
C1273      C1274   1.401       .  A
C1273      C1278   1.410       .  A
C1274      C1275   1.402       .  A
C1274      H1283   1.084       .  S
C1275      C1276   1.420       .  A
C1275      S1279   1.802       .  S
C1276      C1277   1.406       .  A
C1277      C1278   1.402       .  A
C1277      H1284   1.084       .  S
C1278      S1280   1.803       .  S
S1279      H1282   1.392       .  S
S1280      H1281   1.404       .  S
C1285      C1286   1.411       .  A
C1285      C1290   1.432       .  A
C1286      C1287   1.397       .  A
C1286      H1295   1.081       .  S
C1287      C1288   1.405       .  A
C1287      S1291   1.803       .  S
C1288      C1289   1.400       .  A
C1289      C1290   1.399       .  A
C1289      H1296   1.084       .  S
C1290      S1292   1.814       .  S
S1291      H1294   1.407       .  S
S1292      H1293   1.402       .  S
C1297      C1298   1.402       .  A
C1297      C1302   1.424       .  A
C1298      C1299   1.388       .  A
C1298      H1307   1.076       .  S
C1299      C1300   1.408       .  A
C1299      S1303   1.786       .  S
C1300      C1301   1.403       .  A
C1301      C1302   1.410       .  A
C1301      H1308   1.083       .  S
C1302      S1304   1.797       .  S
S1303      H1306   1.407       .  S
S1304      H1305   1.405       .  S
C1309      C1310   1.405       .  A
C1309      C1314   1.412       .  A
C1310      C1311   1.415   1_565  A
C1310      H1319   1.082       .  S
C1311      C1312   1.425       .  A
C1311      S1315   1.808       .  S
C1312      C1313   1.402       .  A
C1313      C1314   1.399   1_545  A
C1313      H1320   1.079       .  S
C1314      S1316   1.809       .  S
S1315      H1318   1.406   1_545  S
S1316      H1317   1.406       .  S
C1321      C1322   1.410       .  A
C1321      C1326   1.421       .  A
C1322      C1323   1.415   1_455  A
C1322      H1331   1.074       .  S
C1323      C1324   1.430       .  A
C1323      S1327   1.806       .  S
C1324      C1325   1.391       .  A
C1325      C1326   1.384   1_655  A
C1325      H1332   1.077       .  S
C1326      S1328   1.776       .  S
S1327      H1330   1.408   1_655  S
S1328      H1329   1.411       .  S
