geometry optimzed in LAMMPS
_audit_creation_date              2020-11-30 
_audit_creation_method            'lammps2cif' 
_symmetry_space_group_name_H-M    'P1' 
_symmetry_Int_Tables_number       1 
_symmetry_cell_setting            triclinic 
loop_ 
_symmetry_equiv_pos_as_xyz 
  x,y,z 
_cell_length_a                    34.62562907219957 
_cell_length_b                    35.13627127339268 
_cell_length_c                    34.86584591701737 
_cell_angle_alpha                 90.09982929945433 
_cell_angle_beta                  90.49090551997044 
_cell_angle_gamma                 89.909329448289 
loop_ 
_atom_site_label 
_atom_site_type_symbol 
_atom_site_fract_x 
_atom_site_fract_y 
_atom_site_fract_z 
_atom_site_charge 
O1          O  0.41487556  0.89216306  0.89003841    -0.85520
O2          O  0.48583481  0.90748028  0.85959777    -0.82570
C3          C  0.51245547  0.91934520  0.83846310     0.97940
O4          O  0.50464126  0.94059712  0.80973662    -0.82600
O5          O  0.46638825  0.89170910  0.76123285    -0.85250
C6          C  0.44107604  0.86771379  0.75187758     1.02470
O7          O  0.40667187  0.87010918  0.76431321    -0.78010
O8          O  0.40493852  0.85469999  0.84113618    -0.78200
C9          C  0.40966829  0.85922012  0.87656448     1.02420
O10         O  0.39208864  0.96748216  0.87080933    -0.85520
O11         O  0.46551865  0.98600601  0.85169072    -0.82580
C12         C  0.45560409  0.00911856  0.82576367     0.97960
O13         O  0.44307370  0.99688519  0.79406803    -0.82610
O14         O  0.40920170  0.94656950  0.74112291    -0.85220
C15         C  0.37292645  0.94647649  0.74644388     1.02430
O16         O  0.35961695  0.93692307  0.77839267    -0.78040
O17         O  0.35366623  0.92053979  0.85467072    -0.78180
C18         C  0.35944312  0.95203995  0.87211516     1.02390
Cr19       Cr  0.43877923  0.93737336  0.86471347     1.93740
Cr20       Cr  0.45376383  0.94308142  0.77930648     1.93210
Cr21       Cr  0.38414303  0.89749511  0.81003768     1.39100
O22         O  0.42550511  0.92566439  0.81763214    -1.23270
O23         O  0.41275606  0.81273196  0.13495363    -0.85520
O24         O  0.47677484  0.78727882  0.10008240    -0.82570
C25         C  0.50049822  0.77173964  0.07821460     0.97940
O26         O  0.49019231  0.74277020  0.05891909    -0.82600
O27         O  0.46303489  0.68991017  0.11392399    -0.85250
C28         C  0.44073965  0.67775057  0.13979899     1.02470
O29         O  0.40542517  0.68656785  0.13977944    -0.78010
O30         O  0.41110971  0.75942109  0.16670364    -0.78200
C31         C  0.41985651  0.79418385  0.16505983     1.02420
O32         O  0.37087289  0.80449235  0.06436048    -0.85520
O33         O  0.43804451  0.78820956  0.02728426    -0.82580
C34         C  0.42487801  0.76373030  0.00420288     0.97960
O35         O  0.42012151  0.72972528  0.01480720    -0.82610
O36         O  0.39784273  0.67360392  0.06522743    -0.85220
C37         C  0.36177125  0.67882961  0.06852998     1.02430
O38         O  0.34876852  0.70820744  0.08518392    -0.78040
O39         O  0.34657655  0.78118459  0.11707802    -0.78180
C40         C  0.34383796  0.80284050  0.08815924     1.02390
Cr41       Cr  0.42409114  0.79490404  0.08205450     1.93740
Cr42       Cr  0.44120039  0.71135001  0.06509027     1.93210
Cr43       Cr  0.38010006  0.73473825  0.12479582     1.39100
O44         O  0.41478052  0.74675920  0.09028823    -1.23270
O45         O  0.29551597  0.99591743  0.12355665    -0.85520
O46         O  0.28022655  0.95693257  0.05705971    -0.82570
C47         C  0.25425840  0.93438191  0.06785667     0.97940
O48         O  0.22035275  0.94595422  0.07343823    -0.82600
O49         O  0.16386594  0.99511419  0.09606043    -0.85250
C50         C  0.17001381  0.99828504  0.13179663     1.02470
O51         O  0.19898881  0.01678211  0.14420901    -0.78010
O52         O  0.27254288  0.04923676  0.14634654    -0.78200
C53         C  0.29330907  0.01980474  0.15041365     1.02420
O54         O  0.30467067  0.06496152  0.07997406    -0.85520
O55         O  0.28079848  0.02687990  0.01608540    -0.82580
C56         C  0.26251957  0.00600005  0.99290437     0.97960
O57         O  0.23248037  0.98865924  0.00393353    -0.82610
O58         O  0.17796740  0.04274230  0.03083528    -0.85220
C59         C  0.16315102  0.06665937  0.05357241     1.02430
O60         O  0.17556871  0.06998559  0.08756072    -0.78040
O61         O  0.25044180  0.09695415  0.08166290    -0.78180
C62         C  0.28603081  0.09532358  0.07401929     1.02390
Cr63       Cr  0.28670540  0.01182933  0.06982319     1.93740
Cr64       Cr  0.20142543  0.99529683  0.05265759     1.93210
Cr65       Cr  0.22531281  0.05584964  0.11250942     1.39100
O66         O  0.23761849  0.02099895  0.07818291    -1.23270
O67         O  0.55094219  0.99186724  0.19951456    -0.85520
O68         O  0.50859993  0.93268062  0.22820953    -0.82570
C69         C  0.48604132  0.91381254  0.24900568     0.97940
O70         O  0.46960260  0.92981908  0.27698243    -0.82600
O71         O  0.52880616  0.95705758  0.32616879    -0.85250
C72         C  0.55639421  0.97869323  0.33627796     1.02470
O73         O  0.55763101  0.01283691  0.32517324    -0.78010
O74         O  0.58443220  0.00433912  0.25192371    -0.78200
C75         C  0.58269272  0.99294166  0.21761329     1.02420
O76         O  0.48343506  0.03983530  0.20237819    -0.85520
O77         O  0.44059253  0.97868717  0.22544719    -0.82580
C78         C  0.41876980  0.99397441  0.24983560     0.97960
O79         O  0.43110307  0.00183432  0.28318264    -0.82610
O80         O  0.48416862  0.02421733  0.33863577    -0.85220
C81         C  0.48750743  0.05902619  0.33050893     1.02430
O82         O  0.50346003  0.06890060  0.29961019    -0.78040
O83         O  0.53598501  0.06476991  0.22693847    -0.78180
C84         C  0.50795119  0.06626425  0.20373367     1.02390
Cr85       Cr  0.49678473  0.98683632  0.21755224     1.93740
Cr86       Cr  0.48050041  0.97955441  0.30343576     1.93210
Cr87       Cr  0.54244538  0.03514750  0.27526087     1.39100
O88         O  0.50689107  0.00026421  0.26532184    -1.23270
O89         O  0.53713293  0.11974666  0.97510110    -0.85520
O90         O  0.51093179  0.14108192  0.04524059    -0.82570
C91         C  0.49770903  0.16070841  0.07234182     0.97940
O92         O  0.47763701  0.19046717  0.06576287    -0.82600
O93         O  0.52698934  0.24393753  0.03482590    -0.85250
C94         C  0.55164333  0.25659063  0.01182761     1.02470
O95         O  0.55128595  0.24652628  0.97696274    -0.78010
O96         O  0.57235372  0.17121863  0.97496092    -0.78200
C97         C  0.56988980  0.13558073  0.97677331     1.02420
O98         O  0.46165743  0.13654204  0.94366009    -0.85520
O99         O  0.43416055  0.14766459  0.01699173    -0.82580
C100        C  0.41063980  0.17505126  0.01483576     0.97960
O101        O  0.42216166  0.20780820  0.00560397    -0.82610
O102        O  0.47242354  0.26338036  0.97536087    -0.85220
C103        C  0.47563372  0.25987756  0.93911114     1.02430
O104        O  0.48913002  0.22987100  0.92481860    -0.78040
O105        O  0.51397602  0.15689422  0.91565964    -0.78180
C106        C  0.48262789  0.13818994  0.91435351     1.02390
Cr107      Cr  0.48655143  0.13992169  0.99464991     1.93740
Cr108      Cr  0.47621268  0.22371926  0.01791281     1.93210
Cr109      Cr  0.52931344  0.20033262  0.95091352     1.39100
O110        O  0.49720582  0.18834701  0.98798032    -1.23270
O111        O  0.63088474  0.89632036  0.04919278    -0.85520
O112        O  0.65070132  0.96882597  0.06731454    -0.82570
C113        C  0.67534931  0.96067050  0.09293036     0.97940
O114        O  0.70811959  0.94817500  0.08376886    -0.82600
O115        O  0.76312620  0.90957030  0.03966456    -0.85250
C116        C  0.75524572  0.87425911  0.04223750     1.02470
O117        O  0.72213134  0.86281997  0.03337805    -0.78010
O118        O  0.64929032  0.85647121  0.00479790    -0.78200
C119        C  0.62936593  0.86379069  0.03426128     1.02420
O120        O  0.62020439  0.91668573  0.97003561    -0.85520
O121        O  0.65002923  0.98595831  0.98698497    -0.82580
C122        C  0.67056914  0.01260071  0.99973004     0.97960
O123        O  0.69826402  0.00552360  0.02311819    -0.82610
O124        O  0.74907539  0.96273349  0.97906590    -0.85220
C125        C  0.76013780  0.93499213  0.95892484     1.02430
O126        O  0.74771441  0.90162307  0.96525781    -0.78040
O127        O  0.67292514  0.90173874  0.93926732    -0.78180
C128        C  0.63744356  0.90934206  0.93905726     1.02390
Cr129      Cr  0.64114023  0.94103879  0.01795234     1.93740
Cr130      Cr  0.72702168  0.95469295  0.03044327     1.93210
Cr131      Cr  0.69764934  0.88360469  0.98733035     1.39100
O132        O  0.68882520  0.92667632  0.01144264    -1.23270
O133        O  0.80153575  0.43825383  0.96407724    -0.85520
O134        O  0.78332015  0.47354165  0.03203670    -0.82570
C135        C  0.76483217  0.49889483  0.01446965     0.97940
O136        O  0.72968971  0.49293548  0.00597241    -0.82600
O137        O  0.66777955  0.44929580  0.97950117    -0.85250
C138        C  0.67472886  0.44616696  0.94409932     1.02470
O139        O  0.70344891  0.42696370  0.93294804    -0.78010
O140        O  0.77436528  0.39046287  0.93389896    -0.78200
C141        C  0.79732248  0.41845457  0.93410663     1.02420
O142        O  0.80155822  0.36683160  0.00296016    -0.85520
O143        O  0.77544709  0.40310158  0.06853383    -0.82580
C144        C  0.75776422  0.42614018  0.09007230     0.97960
O145        O  0.73122555  0.44701716  0.07599315    -0.82610
O146        O  0.67503528  0.39874235  0.04345202    -0.85220
C147        C  0.66311559  0.37323241  0.02038928     1.02430
O148        O  0.67420222  0.37249538  0.98597357    -0.78040
O149        O  0.74561817  0.33962670  0.99308364    -0.78180
C150        C  0.78035362  0.33779325  0.00406232     1.02390
Cr151      Cr  0.78708546  0.41997286  0.01573678     1.93740
Cr152      Cr  0.70330275  0.44499863  0.02479986     1.93210
Cr153      Cr  0.72539390  0.38468970  0.96417701     1.39100
O154        O  0.73834954  0.41617606  0.00174281    -1.23270
O155        O  0.04786057  0.45220557  0.88276100    -0.85520
O156        O  0.00797577  0.51091835  0.84799171    -0.82570
C157        C  0.98537720  0.52898828  0.82598129     0.97940
O158        O  0.96782567  0.51155583  0.79903219    -0.82600
O159        O  0.02520298  0.48057300  0.75095549    -0.85250
C160        C  0.05399811  0.45945819  0.74361776     1.02470
O161        O  0.05731534  0.42683000  0.75834250    -0.78010
O162        O  0.08204627  0.43988346  0.83163627    -0.78200
C163        C  0.07986463  0.45131961  0.86574930     1.02420
O164        O  0.97920975  0.40609611  0.87846242    -0.85520
O165        O  0.93896028  0.46823260  0.85193799    -0.82580
C166        C  0.91655282  0.45021690  0.82989496     0.97960
O167        O  0.92845389  0.43849978  0.79770532    -0.82610
O168        O  0.98136081  0.41190268  0.74324485    -0.85220
C169        C  0.98876210  0.37801249  0.75321562     1.02430
O170        O  0.00398708  0.37162073  0.78548224    -0.78040
O171        O  0.03271250  0.38005720  0.85818738    -0.78180
C172        C  0.00234611  0.37830104  0.87790088     1.02390
Cr173      Cr  0.99445053  0.45809450  0.86187319     1.93740
Cr174      Cr  0.97761045  0.45949202  0.77557694     1.93210
Cr175      Cr  0.04116309  0.40728321  0.80880914     1.39100
O176        O  0.00482951  0.44194968  0.81523846    -1.23270
O177        O  0.12468077  0.54534720  0.04376064    -0.85520
O178        O  0.14325948  0.47505555  0.01671355    -0.82570
C179        C  0.16916505  0.48379243  0.99303768     0.97940
O180        O  0.20159300  0.49555797  0.00456424    -0.82600
O181        O  0.25682969  0.52663858  0.05421483    -0.85250
C182        C  0.24970763  0.56207472  0.05546939     1.02470
O183        O  0.21825721  0.57382220  0.06854824    -0.78010
O184        O  0.14486504  0.57811152  0.09348022    -0.78200
C185        C  0.12691813  0.57641141  0.06165973     1.02420
O186        O  0.11224378  0.51479487  0.11912635    -0.85520
O187        O  0.14103095  0.44630801  0.09321953    -0.82580
C188        C  0.16164942  0.42196003  0.07650111     0.97960
O189        O  0.19029574  0.43213778  0.05636639    -0.82610
O190        O  0.24137355  0.46659130  0.10718373    -0.85220
C191        C  0.25231914  0.49055433  0.13186199     1.02430
O192        O  0.24016969  0.52460190  0.13129432    -0.78040
O193        O  0.16468380  0.52359928  0.15335230    -0.78180
C194        C  0.12891647  0.51804992  0.15136564     1.02390
Cr195      Cr  0.13366001  0.49621561  0.06905202     1.93740
Cr196      Cr  0.21978512  0.48215828  0.05709593     1.93210
Cr197      Cr  0.19146258  0.54712263  0.10951934     1.39100
O198        O  0.18186566  0.50827224  0.07888604    -1.23270
O199        O  0.02866963  0.31351717  0.08824247    -0.85520
O200        O  0.99959716  0.28996186  0.02047980    -0.82570
C201        C  0.98513877  0.26962420  0.99450648     0.97940
O202        O  0.96713860  0.23913328  0.00242012    -0.82600
O203        O  0.02095952  0.18964084  0.03496121    -0.85250
C204        C  0.04417989  0.17591946  0.05922443     1.02470
O205        O  0.04318856  0.18653826  0.09390306    -0.78010
O206        O  0.06488998  0.26245683  0.09278596    -0.78200
C207        C  0.06151832  0.29772145  0.08716705     1.02420
O208        O  0.95474478  0.29716064  0.12284977    -0.85520
O209        O  0.92442262  0.28219354  0.05157179    -0.82580
C210        C  0.90211996  0.25411372  0.05545439     0.97960
O211        O  0.91523539  0.22180219  0.06429391    -0.82610
O212        O  0.96757524  0.16962344  0.09567871    -0.85220
C213        C  0.96935221  0.17547302  0.13178843     1.02430
O214        O  0.98225653  0.20640838  0.14466785    -0.78040
O215        O  0.00840148  0.27934079  0.15092193    -0.78180
C216        C  0.97633463  0.29669490  0.15204360     1.02390
Cr217      Cr  0.97756783  0.29226902  0.07156294     1.93740
Cr218      Cr  0.96928651  0.20768735  0.05150002     1.93210
Cr219      Cr  0.02241443  0.23432644  0.11772081     1.39100
O220        O  0.98970591  0.24458518  0.08000617    -1.23270
O221        O  0.94017585  0.54736204  0.20406242    -0.85520
O222        O  0.98415330  0.48545843  0.22537265    -0.82570
C223        C  0.00546931  0.50104102  0.25019279     0.97940
O224        O  0.99242752  0.50927153  0.28283161    -0.82600
O225        O  0.93833294  0.52979547  0.33677376    -0.85250
C226        C  0.93014997  0.56417009  0.32972135     1.02470
O227        O  0.91142020  0.57306133  0.29966026    -0.78010
O228        O  0.88423282  0.56820503  0.22455755    -0.78200
C229        C  0.91366765  0.57200078  0.20354625     1.02420
O230        O  0.87507246  0.49880358  0.19479820    -0.85520
O231        O  0.91642475  0.43996308  0.22491865    -0.82580
C232        C  0.93815872  0.42038195  0.24617843     0.97960
O233        O  0.95561164  0.43561810  0.27440349    -0.82610
O234        O  0.89791929  0.46033403  0.32480988    -0.85220
C235        C  0.86906792  0.47969658  0.33537725     1.02430
O236        O  0.86205529  0.51209448  0.32128270    -0.78040
O237        O  0.83974954  0.50078315  0.24616815    -0.78180
C238        C  0.84439541  0.49034763  0.21182358     1.02390
Cr239      Cr  0.92813617  0.49379874  0.21592955     1.93740
Cr240      Cr  0.94395774  0.48514516  0.30177722     1.93210
Cr241      Cr  0.87718812  0.53638056  0.27221869     1.39100
O242        O  0.91639514  0.50520660  0.26359863    -1.23270
O243        O  0.93150542  0.62965341  0.94348057    -0.85520
O244        O  0.99416846  0.66069773  0.98067315    -0.82570
C245        C  0.01448165  0.67801707  0.00516177     0.97940
O246        O  0.99917998  0.70362248  0.02558070    -0.82600
O247        O  0.96739866  0.75561983  0.97229572    -0.85250
C248        C  0.94445804  0.76589708  0.94557632     1.02470
O249        O  0.90997736  0.75406679  0.94406819    -0.78010
O250        O  0.91658359  0.68250123  0.91380271    -0.78200
C251        C  0.93008455  0.64908684  0.91331620     1.02420
O252        O  0.89057022  0.62908715  0.01300438    -0.85520
O253        O  0.95525756  0.65212175  0.05159146    -0.82580
C254        C  0.93631822  0.67109984  0.07559966     0.97960
O255        O  0.92756898  0.70538380  0.06803922    -0.82610
O256        O  0.90277185  0.76459364  0.02023004    -0.85220
C257        C  0.86719317  0.75806276  0.01673935     1.02430
O258        O  0.85559108  0.72829054  0.99967863    -0.78040
O259        O  0.85753148  0.65569160  0.96618105    -0.78180
C260        C  0.86101414  0.63036181  0.99176042     1.02390
Cr261      Cr  0.94166499  0.64642472  0.99667885     1.93740
Cr262      Cr  0.94776592  0.72975251  0.01951620     1.93210
Cr263      Cr  0.88754311  0.70428071  0.95855166     1.39100
O264        O  0.92543692  0.69356503  0.99128563    -1.23270
O265        O  0.89472319  0.81987267  0.49277627    -0.85520
O266        O  0.91596070  0.78936296  0.56065550    -0.82570
C267        C  0.92570259  0.76556545  0.58581785     0.97940
O268        O  0.94615176  0.73653950  0.57731178    -0.82600
O269        O  0.89616840  0.68892942  0.53846349    -0.85250
C270        C  0.87261660  0.67887407  0.51268192     1.02470
O271        O  0.87298203  0.69471641  0.48008667    -0.78010
O272        O  0.85556151  0.77176010  0.48616853    -0.78200
C273        C  0.86101779  0.80638854  0.49392360     1.02420
O274        O  0.96945562  0.80134643  0.46320016    -0.85520
O275        O  0.99293295  0.78166923  0.53663734    -0.82580
C276        C  0.01576347  0.75505403  0.52853353     0.97960
O277        O  0.00285455  0.72400114  0.51567672    -0.82610
O278        O  0.95112152  0.67421530  0.47889918    -0.85220
C279        C  0.94787382  0.68149059  0.44320252     1.02430
O280        O  0.93590072  0.71342529  0.43215967    -0.78040
O281        O  0.91662555  0.78777100  0.43097409    -0.78180
C282        C  0.95018245  0.80228844  0.43233901     1.02390
Cr283      Cr  0.94255244  0.79470525  0.51229041     1.93740
Cr284      Cr  0.94806446  0.70889983  0.52564223     1.93210
Cr285      Cr  0.89726935  0.74237340  0.46036374     1.39100
O286        O  0.92919474  0.74819427  0.49957797    -1.23270
O287        O  0.78711424  0.05988870  0.54510139    -0.85520
O288        O  0.77308708  0.98796101  0.57207901    -0.82570
C289        C  0.74512016  0.99455760  0.59381274     0.97940
O290        O  0.71293664  0.00451642  0.57998812    -0.82600
O291        O  0.65988658  0.03218387  0.52585840    -0.85250
C292        C  0.66403279  0.06775558  0.52094980     1.02470
O293        O  0.69426772  0.08081921  0.50621948    -0.78010
O294        O  0.77076057  0.08860234  0.49153469    -0.78200
C295        C  0.78663796  0.08941734  0.52463713     1.02420
O296        O  0.80998783  0.02834073  0.47369633    -0.85520
O297        O  0.78413068  0.95850928  0.49795109    -0.82580
C298        C  0.76301398  0.93295226  0.51195499     0.97960
O299        O  0.73171508  0.94125346  0.52901479    -0.82610
O300        O  0.68116223  0.97098618  0.47584456    -0.85220
C301        C  0.67234843  0.99196842  0.44793303     1.02430
O302        O  0.68460992  0.02588313  0.44565845    -0.78040
O303        O  0.76288374  0.02905975  0.43233480    -0.78180
C304        C  0.79854691  0.02724752  0.43930827     1.02390
Cr305      Cr  0.78490439  0.00931844  0.52100948     1.93740
Cr306      Cr  0.69930968  0.98955567  0.52616826     1.93210
Cr307      Cr  0.72859850  0.05321898  0.47146036     1.39100
O308        O  0.73709539  0.01721764  0.50598930    -1.23270
O309        O  0.98386281  0.04308021  0.37341616    -0.85520
O310        O  0.94644696  0.97629249  0.35409189    -0.82570
C311        C  0.92215550  0.99487092  0.33482468     0.97940
O312        O  0.92967949  0.00253769  0.30016468    -0.82600
O313        O  0.97769008  0.02541221  0.24016890    -0.85250
C314        C  0.98343801  0.06044203  0.24609055     1.02470
O315        O  0.00180232  0.07145918  0.27559269    -0.78010
O316        O  0.03464125  0.07013532  0.34834047    -0.78200
C317        C  0.00636638  0.07109573  0.37108188     1.02420
O318        O  0.05444569  0.00261100  0.37808126    -0.85520
O319        O  0.01840948  0.93901285  0.34913963    -0.82580
C320        C  0.99543819  0.91766137  0.33098441     0.97960
O321        O  0.97414537  0.93135960  0.30455980    -0.82610
O322        O  0.02561850  0.96014569  0.25048491    -0.85220
C323        C  0.05308236  0.98144731  0.23988155     1.02430
O324        O  0.05562295  0.01548958  0.25116054    -0.78040
O325        O  0.08503727  0.00863790  0.32402676    -0.78180
C326        C  0.08490359  0.99956975  0.35901380     1.02390
Cr327      Cr  0.00120152  0.99118555  0.36031406     1.93740
Cr328      Cr  0.97861546  0.98129871  0.27628401     1.93210
Cr329      Cr  0.04175298  0.03898182  0.30061688     1.39100
O330        O  0.00739751  0.00390301  0.31210161    -1.23270
O331        O  0.96667680  0.13386463  0.62780467    -0.85520
O332        O  0.93620096  0.15010877  0.55701482    -0.82570
C333        C  0.91323037  0.17664178  0.56540500     0.97940
O334        O  0.92597455  0.20822998  0.57700296    -0.82600
O335        O  0.97901461  0.26191633  0.60575060    -0.85250
C336        C  0.98555668  0.25632425  0.64125715     1.02470
O337        O  0.99967379  0.22528524  0.65244529    -0.78010
O338        O  0.02047993  0.15123632  0.65646649    -0.78200
C339        C  0.98770870  0.13491126  0.65742123     1.02420
O340        O  0.03958140  0.11601484  0.59386251    -0.85520
O341        O  0.01106886  0.14401369  0.52542292    -0.82580
C342        C  0.99486509  0.16523121  0.50102911     0.97960
O343        O  0.97532486  0.19422306  0.51127337    -0.82610
O344        O  0.02793983  0.24459246  0.54196555    -0.85220
C345        C  0.05479205  0.25537812  0.56388394     1.02430
O346        O  0.05835854  0.24227033  0.59758565    -0.78040
O347        O  0.07698615  0.16581160  0.59574039    -0.78180
C348        C  0.07297182  0.13036035  0.59287618     1.02390
Cr349      Cr  0.98931909  0.13945410  0.57676670     1.93740
Cr350      Cr  0.97862719  0.22441304  0.56108708     1.93210
Cr351      Cr  0.03652397  0.19559245  0.62276778     1.39100
O352        O  0.00163989  0.18690742  0.58674218    -1.23270
O353        O  0.12497072  0.94251923  0.60683810    -0.85520
O354        O  0.14940244  0.98635135  0.54715898    -0.82570
C355        C  0.17334688  0.00754120  0.56442311     0.97940
O356        O  0.20716532  0.99583366  0.57208313    -0.82600
O357        O  0.26422181  0.94331402  0.59302701    -0.85250
C358        C  0.25677985  0.93864064  0.62809528     1.02470
O359        O  0.22518635  0.92364609  0.63768581    -0.78010
O360        O  0.15158687  0.89222561  0.63325374    -0.78200
C361        C  0.12725099  0.91890813  0.63390326     1.02420
O362        O  0.12335982  0.87670273  0.55752048    -0.85520
O363        O  0.15333737  0.91984015  0.49919073    -0.82580
C364        C  0.17366214  0.94336112  0.48112391     0.97960
O365        O  0.20097215  0.96034868  0.49826667    -0.82610
O366        O  0.25025627  0.90129893  0.52430262    -0.85220
C367        C  0.26013153  0.87329512  0.54516025     1.02430
O368        O  0.24942405  0.87096027  0.57962492    -0.78040
O369        O  0.17576163  0.84434915  0.57231452    -0.78180
C370        C  0.14135545  0.84549233  0.56028907     1.02390
Cr371      Cr  0.14150883  0.93049676  0.55374718     1.93740
Cr372      Cr  0.22783481  0.94814364  0.54824173     1.93210
Cr373      Cr  0.19979044  0.88582561  0.60311636     1.39100
O374        O  0.18955503  0.92116658  0.56827451    -1.23270
O375        O  0.86880142  0.96750512  0.71013666    -0.85520
O376        O  0.94359117  0.99055671  0.72011496    -0.82570
C377        C  0.94122743  0.01401368  0.74743778     0.97940
O378        O  0.93245773  0.00308579  0.78065397    -0.82600
O379        O  0.90383146  0.95395315  0.83812634    -0.85250
C380        C  0.86727348  0.95193576  0.83486937     1.02470
O381        O  0.85213736  0.94384427  0.80317178    -0.78010
O382        O  0.83728220  0.91816421  0.73145291    -0.78200
C383        C  0.83753476  0.94973747  0.71375963     1.02420
O384        O  0.89525549  0.89117997  0.69319931    -0.85520
O385        O  0.96795927  0.91379765  0.71293880    -0.82580
C386        C  0.99639172  0.92717680  0.73113162     0.97960
O387        O  0.99135378  0.94763550  0.76095117    -0.82610
O388        O  0.96021304  0.89918207  0.81512384    -0.85220
C389        C  0.93610384  0.87629066  0.82890663     1.02430
O390        O  0.90050257  0.87865547  0.82034503    -0.78040
O391        O  0.89349631  0.85718055  0.74556281    -0.78180
C392        C  0.89600407  0.85915234  0.70973306     1.02390
Cr393      Cr  0.91840354  0.94013404  0.71246907     1.93740
Cr394      Cr  0.94453289  0.94989331  0.79614235     1.93210
Cr395      Cr  0.87346131  0.90137838  0.77440438     1.39100
O396        O  0.91251729  0.93021353  0.76123282    -1.23270
O397        O  0.38733327  0.62795349  0.55826510    -0.85520
O398        O  0.45055738  0.65073912  0.51783129    -0.82570
C399        C  0.43623240  0.67514994  0.49527700     0.97940
O400        O  0.42894220  0.70860135  0.50656791    -0.82600
O401        O  0.40456424  0.76376450  0.55717535    -0.85250
C402        C  0.36893101  0.75613099  0.55793582     1.02470
O403        O  0.35755133  0.72585320  0.57391832    -0.78010
O404        O  0.35905417  0.65393102  0.60782464    -0.78200
C405        C  0.35962576  0.62949464  0.58137509     1.02420
O406        O  0.43274782  0.62604460  0.62703288    -0.85520
O407        O  0.49442469  0.65385179  0.58804397    -0.82580
C408        C  0.51487654  0.67315053  0.56574086     0.97960
O409        O  0.50008919  0.70096223  0.54795876    -0.82610
O410        O  0.47048937  0.74995040  0.60581205    -0.85220
C411        C  0.44723740  0.76018633  0.63185723     1.02430
O412        O  0.41208683  0.75099238  0.62997816    -0.78040
O413        O  0.41943764  0.67860656  0.65853875    -0.78180
C414        C  0.43210047  0.64485979  0.65786153     1.02390
Cr415      Cr  0.44022253  0.64331531  0.57341993     1.93740
Cr416      Cr  0.44959409  0.72822164  0.55645471     1.93210
Cr417      Cr  0.38959205  0.70156640  0.61490974     1.39100
O418        O  0.42641149  0.69086556  0.58166165    -1.23270
O419        O  0.39252938  0.46716770  0.37505047    -0.85520
O420        O  0.46285383  0.44478090  0.35029526    -0.82570
C421        C  0.45134971  0.42147849  0.32503731     0.97940
O422        O  0.43749837  0.43318737  0.29371309    -0.82600
O423        O  0.40330210  0.48310672  0.24132676    -0.85250
C424        C  0.36754612  0.48273773  0.24876200     1.02470
O425        O  0.35614216  0.49287138  0.28128883    -0.78010
O426        O  0.35363195  0.51302248  0.35661123    -0.78200
C427        C  0.35959863  0.48226705  0.37507379     1.02420
O428        O  0.41974707  0.54285840  0.38811434    -0.85520
O429        O  0.48767662  0.52269210  0.35371089    -0.82580
C430        C  0.51228189  0.50753056  0.33221439     0.97960
O431        O  0.50154343  0.48615075  0.30465183    -0.82610
O432        O  0.46249448  0.53674419  0.25815864    -0.85220
C433        C  0.43721338  0.56125035  0.24989377     1.02430
O434        O  0.40297654  0.55891235  0.26272158    -0.78040
O435        O  0.40419772  0.57734934  0.33828977    -0.78180
C436        C  0.41344375  0.57491409  0.37304475     1.02390
Cr437      Cr  0.43966967  0.49521855  0.36349410     1.93740
Cr438      Cr  0.44928558  0.48594988  0.27732564     1.93210
Cr439      Cr  0.38212538  0.53350707  0.31008673     1.39100
O440        O  0.42358055  0.50518952  0.31678927    -1.23270
O441        O  0.62145270  0.51446349  0.46241528    -0.85520
O442        O  0.64749093  0.44623625  0.49008530    -0.82570
C443        C  0.66623328  0.42121549  0.50803460     0.97940
O444        O  0.69520209  0.43033759  0.52879612    -0.82600
O445        O  0.74779137  0.46150278  0.47799709    -0.85250
C446        C  0.76016133  0.48456614  0.45334977     1.02470
O447        O  0.74937982  0.51904933  0.45313540    -0.78010
O448        O  0.67441666  0.52116192  0.42950661    -0.78200
C449        C  0.63857554  0.51628194  0.43064472     1.02420
O450        O  0.63372695  0.54655840  0.53737202    -0.85520
O451        O  0.64981446  0.47651693  0.56618024    -0.82580
C452        C  0.67556268  0.48482854  0.59061261     0.97960
O453        O  0.70907172  0.49412320  0.58000203    -0.82610
O454        O  0.76662826  0.52215057  0.52970794    -0.85220
C455        C  0.76189700  0.55784472  0.52589490     1.02430
O456        O  0.73002622  0.57083217  0.51465606    -0.78040
O457        O  0.65602041  0.57765164  0.48786021    -0.78180
C458        C  0.63618768  0.57680955  0.51833018     1.02390
Cr459      Cr  0.64164696  0.49662408  0.51331899     1.93740
Cr460      Cr  0.72704260  0.47915323  0.52770226     1.93210
Cr461      Cr  0.70176981  0.54445061  0.47360873     1.39100
O462        O  0.69038146  0.50667540  0.50475133    -1.23270
O463        O  0.45488810  0.29846517  0.44653828    -0.85520
O464        O  0.42411250  0.28569747  0.51823640    -0.82570
C465        C  0.40188072  0.25741496  0.51594572     0.97940
O466        O  0.41490060  0.22486873  0.50801541    -0.82600
O467        O  0.46689681  0.17235895  0.47695363    -0.85250
C468        C  0.47030682  0.17710725  0.44088851     1.02470
O469        O  0.48441195  0.20728081  0.42770430    -0.78010
O470        O  0.50945623  0.28017391  0.42150814    -0.78200
C471        C  0.47748009  0.29740579  0.41841165     1.02420
O472        O  0.52820239  0.31620463  0.48306040    -0.85520
O473        O  0.49880536  0.29423687  0.55061830    -0.82580
C474        C  0.48692628  0.27305793  0.57698244     0.97960
O475        O  0.46865233  0.24247279  0.56959261    -0.82610
O476        O  0.52034340  0.19135960  0.53803153    -0.85220
C477        C  0.54503131  0.17894745  0.51488388     1.02430
O478        O  0.54489835  0.18953998  0.48034392    -0.78040
O479        O  0.56508379  0.26562541  0.48206017    -0.78180
C480        C  0.56105292  0.30090571  0.48734750     1.02390
Cr481      Cr  0.47715572  0.29501174  0.49889389     1.93740
Cr482      Cr  0.46919334  0.21056328  0.52079265     1.93210
Cr483      Cr  0.52348030  0.23637879  0.45574029     1.39100
O484        O  0.48978426  0.24702073  0.49207986    -1.23270
O485        O  0.30148824  0.36602752  0.58057161    -0.85520
O486        O  0.27766477  0.40421099  0.51546951    -0.82570
C487        C  0.26109266  0.42779301  0.49356326     0.97940
O488        O  0.23371748  0.44810200  0.50631917    -0.82600
O489        O  0.17666607  0.39846935  0.53395775    -0.85250
C490        C  0.16277028  0.37325199  0.55577432     1.02470
O491        O  0.17337322  0.37052122  0.59037686    -0.78010
O492        O  0.24530655  0.33838743  0.58455268    -0.78200
C493        C  0.28048886  0.33723826  0.57552223     1.02420
O494        O  0.29936992  0.43613069  0.62193946    -0.85520
O495        O  0.28439926  0.47382688  0.55506264    -0.82580
C496        C  0.26332633  0.49889333  0.56990656     0.97960
O497        O  0.22815230  0.49190222  0.57641002    -0.82610
O498        O  0.16649320  0.44691794  0.59925429    -0.85220
C499        C  0.17196451  0.44234866  0.63488642     1.02430
O500        O  0.20032157  0.42275976  0.64692617    -0.78040
O501        O  0.27192871  0.38652714  0.64808781    -0.78180
C502        C  0.29496437  0.41444321  0.65029002     1.02390
Cr503      Cr  0.28721219  0.41958955  0.56909804     1.93740
Cr504      Cr  0.20361329  0.44417520  0.55557570     1.93210
Cr505      Cr  0.22385153  0.38191669  0.61505674     1.39100
O506        O  0.23798698  0.41519372  0.57992822    -1.23270
O507        O  0.48254481  0.39921573  0.70158534    -0.85520
O508        O  0.44022314  0.46032962  0.72568946    -0.82570
C509        C  0.41915867  0.44384184  0.74981494     0.97940
O510        O  0.43233632  0.43533236  0.78264906    -0.82600
O511        O  0.48708205  0.41431660  0.83750940    -0.85250
C512        C  0.49200333  0.37958415  0.82961236     1.02470
O513        O  0.50776255  0.37004444  0.79844953    -0.78010
O514        O  0.53615017  0.37451135  0.72428584    -0.78200
C515        C  0.50676495  0.37243467  0.70268609     1.02420
O516        O  0.54958422  0.44737396  0.69596592    -0.85520
O517        O  0.50818043  0.50610811  0.72712431    -0.82580
C518        C  0.48566746  0.52488726  0.74816524     0.97960
O519        O  0.46913567  0.50867761  0.77596442    -0.82610
O520        O  0.52925225  0.48238362  0.82443459    -0.85220
C521        C  0.55790089  0.46175561  0.83379613     1.02430
O522        O  0.56122682  0.42810705  0.82140596    -0.78040
O523        O  0.58492306  0.43659372  0.74731659    -0.78180
C524        C  0.58176490  0.44832905  0.71325418     1.02390
Cr525      Cr  0.49615283  0.45216801  0.71618641     1.93740
Cr526      Cr  0.48144870  0.45884482  0.80224065     1.93210
Cr527      Cr  0.54457773  0.40479469  0.77224990     1.39100
O528        O  0.50774093  0.43876936  0.76358334    -1.23270
C529        C  0.33921352  0.39028376  0.70187132    -0.21480
C530        C  0.31907318  0.42072433  0.68483550    -0.09520
C531        C  0.32676903  0.45801741  0.69727117     0.29330
C532        C  0.35673768  0.46499869  0.72334794    -0.21480
C533        C  0.37951953  0.43499831  0.73743011    -0.09540
C534        C  0.36956485  0.39735935  0.72785933     0.29340
F535        F  0.39210447  0.36794395  0.73977298    -0.20060
H536        H  0.33387832  0.36136600  0.69241931     0.17710
H537        H  0.36442726  0.49418884  0.72987703     0.17710
F538        F  0.30702768  0.48794077  0.68217180    -0.20050
C539        C  0.52986290  0.30044252  0.62625115    -0.21480
C540        C  0.49294111  0.28710941  0.61623233    -0.09520
C541        C  0.46116005  0.29778340  0.63858285     0.29330
C542        C  0.46590621  0.32444867  0.66819574    -0.21480
C543        C  0.50250983  0.33986337  0.67631943    -0.09540
C544        C  0.53477190  0.32638102  0.65620372     0.29340
F545        F  0.57041427  0.34126386  0.66271780    -0.20060
H546        H  0.55453360  0.29311282  0.60876331     0.17710
H547        H  0.44078182  0.33438082  0.68359229     0.17710
F548        F  0.42509746  0.28569397  0.62915187    -0.20050
C549        C  0.35010691  0.25731122  0.56426592    -0.21480
C550        C  0.36118910  0.26356155  0.52610777    -0.09520
C551        C  0.33806165  0.28678692  0.50260241     0.29330
C552        C  0.30669616  0.30644550  0.51813991    -0.21480
C553        C  0.29853814  0.30388791  0.55744463    -0.09540
C554        C  0.31912599  0.27763010  0.58003046     0.29340
F555        F  0.31259471  0.27539995  0.61828788    -0.20060
H556        H  0.36822090  0.24028456  0.58306084     0.17710
H557        H  0.29169198  0.32715387  0.50046997     0.17710
F558        F  0.34866199  0.29410411  0.46594849    -0.20050
C559        C  0.61630968  0.38034984  0.53413576    -0.21480
C560        C  0.64839637  0.38350120  0.51019272    -0.09520
C561        C  0.65480176  0.35561022  0.48201322     0.29330
C562        C  0.62784549  0.32616656  0.47652536    -0.21480
C563        C  0.59386015  0.32536647  0.49826638    -0.09540
C564        C  0.58898531  0.35195488  0.52796954     0.29340
F565        F  0.55646087  0.35206534  0.54942673    -0.20060
H566        H  0.61052372  0.40211175  0.55541877     0.17710
H567        H  0.63190058  0.30602034  0.45336061     0.17710
F568        F  0.68521751  0.35866354  0.45794265    -0.20050
C569        C  0.64588290  0.43883806  0.68206107    -0.21480
C570        C  0.61516582  0.46299974  0.69189244    -0.09520
C571        C  0.61197003  0.49866606  0.67396696     0.29330
C572        C  0.63653574  0.50827882  0.64398192    -0.21480
C573        C  0.66446880  0.48243232  0.63114945    -0.09540
C574        C  0.67035869  0.44838783  0.65159202     0.29340
F575        F  0.69645602  0.42241703  0.63909420    -0.20060
H576        H  0.64844392  0.41102971  0.69520145     0.17710
H577        H  0.63100104  0.53421922  0.62808655     0.17710
F578        F  0.58262313  0.52265500  0.68295403    -0.20050
C579        C  0.56636277  0.54627775  0.35686205    -0.21480
C580        C  0.55289704  0.51076327  0.34405869    -0.09520
C581        C  0.57363831  0.47767892  0.35379540     0.29330
C582        C  0.60462938  0.47988316  0.37972800    -0.21480
C583        C  0.61549092  0.51508386  0.39535593    -0.09540
C584        C  0.59762818  0.54848422  0.38226307     0.29340
F585        F  0.60783105  0.58279666  0.39709393    -0.20060
H586        H  0.55038993  0.57197266  0.35003967     0.17710
H587        H  0.61797623  0.45388990  0.39004819     0.17710
F588        F  0.56071239  0.44291272  0.34260819    -0.20050
C589        C  0.31087328  0.41514170  0.44441429    -0.21480
C590        C  0.27877744  0.43650500  0.45594746    -0.09520
C591        C  0.26983997  0.47031310  0.43584034     0.29330
C592        C  0.29488331  0.48406113  0.40759526    -0.21480
C593        C  0.32924311  0.46455869  0.39913414    -0.09540
C594        C  0.33605209  0.42903698  0.41688493     0.29340
F595        F  0.36854881  0.40866873  0.40996362    -0.20060
H596        H  0.31842814  0.38890020  0.45894958     0.17710
H597        H  0.28858027  0.51115426  0.39415242     0.17710
F598        F  0.23871131  0.49171559  0.44544233    -0.20050
C599        C  0.49258730  0.36626403  0.33788425    -0.21480
C600        C  0.45526755  0.38101639  0.33360275    -0.09520
C601        C  0.42406748  0.36192128  0.35012942     0.29330
C602        C  0.43096037  0.33210019  0.37582224    -0.21480
C603        C  0.46899063  0.32036699  0.38395073    -0.09540
C604        C  0.49949956  0.33569770  0.36243356     0.29340
F605        F  0.53659960  0.32456836  0.36857428    -0.20060
H606        H  0.51690032  0.38084226  0.32525918     0.17710
H607        H  0.40691474  0.32004355  0.39130645     0.17710
F608        F  0.38750640  0.37494981  0.34481633    -0.20050
C609        C  0.45214430  0.62696824  0.40179338    -0.21480
C610        C  0.41626401  0.60912961  0.39696323    -0.09520
C611        C  0.38505452  0.62018018  0.41984913     0.29330
C612        C  0.39057126  0.64682123  0.44923143    -0.21480
C613        C  0.42731604  0.66225005  0.45625518    -0.09540
C614        C  0.45774121  0.65333549  0.43141009     0.29340
F615        F  0.49369493  0.66724392  0.43818437    -0.20060
H616        H  0.47652477  0.61832888  0.38452874     0.17710
H617        H  0.36716887  0.65242509  0.46891572     0.17710
F618        F  0.35029190  0.60269800  0.41600686    -0.20050
C619        C  0.29308600  0.60262588  0.56990394    -0.21480
C620        C  0.33173785  0.59830216  0.58189859    -0.09520
C621        C  0.34474590  0.56303111  0.59523513     0.29330
C622        C  0.32035023  0.53186536  0.59442236    -0.21480
C623        C  0.28259919  0.53490879  0.57969704    -0.09540
C624        C  0.26843479  0.57078342  0.56855924     0.29340
F625        F  0.23214917  0.57446773  0.55404209    -0.20060
H626        H  0.28264913  0.63005230  0.56015992     0.17710
H627        H  0.33182316  0.50455961  0.60340671     0.17710
F628        F  0.38162225  0.55847284  0.60805475    -0.20050
C629        C  0.42215828  0.60647216  0.71676249    -0.21480
C630        C  0.44734951  0.62569904  0.69226688    -0.09520
C631        C  0.48683791  0.61661696  0.69330885     0.29330
C632        C  0.50019013  0.58579229  0.71492743    -0.21480
C633        C  0.47438799  0.56384458  0.73635409    -0.09540
C634        C  0.43560885  0.57594638  0.73911542     0.29340
F635        F  0.40969162  0.55549547  0.75951113    -0.20060
H636        H  0.39149099  0.61258661  0.71575815     0.17710
H637        H  0.53016649  0.57729704  0.71255783     0.17710
F638        F  0.51177502  0.63505591  0.67010551    -0.20050
C639        C  0.56338773  0.65681627  0.51632066    -0.21480
C640        C  0.55345820  0.65869897  0.55530662    -0.09520
C641        C  0.57633844  0.63916658  0.58225625     0.29330
C642        C  0.60573450  0.61487594  0.57002039    -0.21480
C643        C  0.61292196  0.60979269  0.53074207    -0.09540
C644        C  0.59279593  0.63238404  0.50398764     0.29340
F645        F  0.59847450  0.62779868  0.46579969    -0.20060
H646        H  0.54599913  0.67144880  0.49500502     0.17710
H647        H  0.62140237  0.59826012  0.59118063     0.17710
F648        F  0.56884797  0.64185709  0.62024374    -0.20050
C649        C  0.32533155  0.85081361  0.52814167    -0.21480
C650        C  0.28599531  0.84297244  0.53204286    -0.09520
C651        C  0.27404980  0.80506311  0.53702209     0.29330
C652        C  0.30124473  0.77618270  0.54261476    -0.21480
C653        C  0.34081466  0.78463220  0.54322794    -0.09540
C654        C  0.35269762  0.82190390  0.53352093     0.29340
F655        F  0.39065767  0.83143863  0.53274245    -0.20060
H656        H  0.33505085  0.87993063  0.52502323     0.17710
H657        H  0.29121071  0.74775142  0.54909853     0.17710
F658        F  0.23600026  0.79669334  0.54065116    -0.20050
C659        C  0.07317741  0.88821319  0.66667948    -0.21480
C660        C  0.09820095  0.91929914  0.66423207    -0.09520
C661        C  0.09314208  0.95062552  0.68874794     0.29330
C662        C  0.06169396  0.95164481  0.71383085    -0.21480
C663        C  0.03477551  0.92174371  0.71397059    -0.09540
C664        C  0.04155043  0.88943096  0.69100316     0.29340
F665        F  0.01628634  0.85991849  0.69032335    -0.20060
H666        H  0.07684704  0.86382005  0.64799551     0.17710
H667        H  0.05692889  0.97685254  0.73105508     0.17710
F668        F  0.11798894  0.98039583  0.68780574    -0.20050
C669        C  0.06817486  0.32400828  0.55641770    -0.21480
C670        C  0.08032108  0.28623409  0.55152662    -0.09520
C671        C  0.11806886  0.27875679  0.53936392     0.29330
C672        C  0.14424208  0.30877437  0.53510563    -0.21480
C673        C  0.13298291  0.34638341  0.54306165    -0.09540
C674        C  0.09437844  0.35395755  0.55246675     0.29340
F675        F  0.08322359  0.38976330  0.56208252    -0.20060
H676        H  0.03914235  0.33007382  0.56609920     0.17710
H677        H  0.17421084  0.30233053  0.52911765     0.17710
F678        F  0.13027770  0.24238401  0.53429057    -0.20050
C679        C  0.13012509  0.10524057  0.55752553    -0.21480
C680        C  0.10659507  0.10477335  0.59012412    -0.09520
C681        C  0.11156448  0.07573901  0.61735997     0.29330
C682        C  0.13798628  0.04638390  0.61089427    -0.21480
C683        C  0.15918173  0.04498622  0.57685285    -0.09540
C684        C  0.15590194  0.07514536  0.55057169     0.29340
F685        F  0.17495396  0.07371357  0.51674564    -0.20060
H686        H  0.12621229  0.12712431  0.53599320     0.17710
H687        H  0.13934453  0.02285592  0.63085067     0.17710
F688        F  0.08898378  0.07444618  0.64898582    -0.20050
C689        C  0.92382905  0.07639993  0.72068079    -0.21480
C690        C  0.95135735  0.05355523  0.73914634    -0.09520
C691        C  0.99059998  0.06349759  0.73730467     0.29330
C692        C  0.00239988  0.09340925  0.71368221    -0.21480
C693        C  0.97513093  0.11321137  0.69134164    -0.09540
C694        C  0.93552343  0.10621196  0.69705705     0.29340
F695        F  0.90824550  0.12592962  0.67714088    -0.20060
H696        H  0.89353843  0.06877001  0.72143172     0.17710
H697        H  0.03299866  0.09834192  0.70985927     0.17710
F698        F  0.01778298  0.04133886  0.75453078    -0.20050
C699        C  0.03090935  0.14769061  0.44292976    -0.21480
C700        C  0.99532352  0.15234231  0.46115627    -0.09520
C701        C  0.96227835  0.13478151  0.44576085     0.29330
C702        C  0.96550094  0.11040705  0.41428855    -0.21480
C703        C  0.00167975  0.10333600  0.39778440    -0.09540
C704        C  0.03411983  0.12372155  0.41112250     0.29340
F705        F  0.06963982  0.11754201  0.39613047    -0.20060
H706        H  0.05675414  0.16035538  0.45513056     0.17710
H707        H  0.94011022  0.09526640  0.40433748     0.17710
F708        F  0.92785004  0.13756373  0.46385153    -0.20050
C709        C  0.12115543  0.94531402  0.38578270    -0.21480
C710        C  0.11907408  0.98470835  0.37928648    -0.09520
C711        C  0.14111330  0.00927141  0.40242483     0.29330
C712        C  0.16267053  0.99478065  0.43329230    -0.21480
C713        C  0.16145666  0.95575696  0.44228020    -0.09540
C714        C  0.14198486  0.93085833  0.41716426     0.29340
F715        F  0.14072666  0.89296893  0.42457048    -0.20060
H716        H  0.10355816  0.92606219  0.36878439     0.17710
H717        H  0.17702158  0.01462340  0.45246259     0.17710
F718        F  0.13816575  0.04754506  0.39793993    -0.20050
C719        C  0.64163643  0.13414420  0.53226344    -0.21480
C720        C  0.63261542  0.09514361  0.52948819    -0.09520
C721        C  0.59349877  0.08418370  0.52863096     0.29330
C722        C  0.56438990  0.11197598  0.52729441    -0.21480
C723        C  0.57394486  0.15077816  0.52693856    -0.09540
C724        C  0.61263317  0.16171602  0.53064673     0.29340
F725        F  0.62249590  0.19909760  0.53003755    -0.20060
H726        H  0.67143730  0.14346890  0.53324493     0.17710
H727        H  0.53457835  0.10322789  0.52374322     0.17710
F728        F  0.58346084  0.04697844  0.52548751    -0.20050
C729        C  0.89622488  0.02222691  0.39365525    -0.21480
C730        C  0.88841640  0.00947528  0.35627832    -0.09520
C731        C  0.84964104  0.00648360  0.34419508     0.29330
C732        C  0.81957400  0.01382327  0.37053444    -0.21480
C733        C  0.82819717  0.02465705  0.40874163    -0.09540
C734        C  0.86707701  0.03040952  0.41913352     0.29340
F735        F  0.87761895  0.04238810  0.45478975    -0.20060
H736        H  0.92545771  0.02420151  0.40439120     0.17710
H737        H  0.78987931  0.00945206  0.36163157     0.17710
F738        F  0.84091999  0.99400642  0.30832419    -0.20050
C739        C  0.82596296  0.14740330  0.51089981    -0.21480
C740        C  0.80925295  0.12286436  0.53784692    -0.09520
C741        C  0.82060930  0.12610720  0.57667699     0.29330
C742        C  0.85197571  0.14902252  0.58706015    -0.21480
C743        C  0.87193342  0.16947190  0.55913734    -0.09540
C744        C  0.85719558  0.17057028  0.52147767     0.29340
F745        F  0.87592436  0.19048403  0.49400015    -0.20060
H746        H  0.81758507  0.14585347  0.48094039     0.17710
H747        H  0.86309672  0.14768406  0.61615036     0.17710
F748        F  0.80385614  0.10441102  0.60405159    -0.20050
C749        C  0.77589892  0.93859747  0.67763433    -0.21480
C750        C  0.80276068  0.96423441  0.69345259    -0.09520
C751        C  0.79996101  0.00304000  0.68362622     0.29330
C752        C  0.77464625  0.01473503  0.65450357    -0.21480
C753        C  0.75188449  0.98804672  0.63482934    -0.09540
C754        C  0.75071681  0.95037931  0.64828041     0.29340
F755        F  0.72946105  0.92384578  0.62924690    -0.20060
H756        H  0.77727943  0.90865567  0.68485120     0.17710
H757        H  0.77631657  0.04374446  0.64420202     0.17710
F758        F  0.82430265  0.02904965  0.69947537    -0.20050
C759        C  0.83350492  0.62620947  0.48608477    -0.21480
C760        C  0.84623829  0.64624257  0.51859418    -0.09520
C761        C  0.83420600  0.63391620  0.55512771     0.29330
C762        C  0.80814895  0.60330739  0.55839220    -0.21480
C763        C  0.79482966  0.58428455  0.52538445    -0.09540
C764        C  0.80829184  0.59575191  0.48935233     0.29340
F765        F  0.79562255  0.57860469  0.45675119    -0.20060
H766        H  0.84285037  0.63432251  0.45767073     0.17710
H767        H  0.79740204  0.59538690  0.58633606     0.17710
F768        F  0.84624002  0.65229720  0.58732596    -0.20050
C769        C  0.87729441  0.79076243  0.62997527    -0.21480
C770        C  0.91433612  0.77507301  0.62519144    -0.09520
C771        C  0.94240974  0.78054817  0.65398333     0.29330
C772        C  0.93467060  0.80514870  0.68471776    -0.21480
C773        C  0.89928473  0.82466623  0.68635208    -0.09540
C774        C  0.86997449  0.81593890  0.65993216     0.29340
F775        F  0.83557452  0.83451188  0.66101184    -0.20060
H776        H  0.85536385  0.78701670  0.60792203     0.17710
H777        H  0.95753361  0.81186032  0.70499585     0.17710
F778        F  0.97866012  0.76650351  0.64971843    -0.20050
C779        C  0.80984540  0.88858710  0.53927363    -0.21480
C780        C  0.77923670  0.89450229  0.51351577    -0.09520
C781        C  0.77168593  0.86747556  0.48469492     0.29330
C782        C  0.79647977  0.83609940  0.48023299    -0.21480
C783        C  0.82925582  0.83230993  0.50396824    -0.09540
C784        C  0.83485037  0.85798666  0.53446921     0.29340
F785        F  0.86612647  0.85504024  0.55803956    -0.20060
H786        H  0.81624336  0.90949542  0.56132877     0.17710
H787        H  0.79195703  0.81673196  0.45643121     0.17710
F788        F  0.74250992  0.87314255  0.45910479    -0.20050
C789        C  0.93984443  0.83532593  0.36977109    -0.21480
C790        C  0.96519840  0.82357654  0.39913374    -0.09520
C791        C  0.00377392  0.83608514  0.39847821     0.29330
C792        C  0.01514228  0.86357406  0.37215752    -0.21480
C793        C  0.98826892  0.87925544  0.34629187    -0.09540
C794        C  0.95118832  0.86300228  0.34345302     0.29340
F795        F  0.92440429  0.87687288  0.31845654    -0.20060
H796        H  0.91020390  0.82552156  0.36905416     0.17710
H797        H  0.04408518  0.87509321  0.37439636     0.17710
F798        F  0.02985685  0.82403947  0.42501385    -0.20050
C799        C  0.10990620  0.80198475  0.51332061    -0.21480
C800        C  0.12000926  0.81034190  0.55147644    -0.09520
C801        C  0.10144403  0.79098542  0.58126194     0.29330
C802        C  0.06990569  0.76737324  0.57307720    -0.21480
C803        C  0.05712679  0.76219106  0.53510179    -0.09540
C804        C  0.07902513  0.77744699  0.50512588     0.29340
F805        F  0.06750709  0.77250971  0.46818587    -0.20060
H806        H  0.12376017  0.81692469  0.49003128     0.17710
H807        H  0.05294564  0.75646778  0.59659754     0.17710
F808        F  0.11059509  0.79870798  0.61839866    -0.20050
C809        C  0.94664422  0.78149770  0.87705060    -0.21480
C810        C  0.95564692  0.79229881  0.91491857    -0.09520
C811        C  0.96437731  0.83055014  0.92284273     0.29330
C812        C  0.96113209  0.85789776  0.89362757    -0.21480
C813        C  0.94866447  0.84724774  0.85664674    -0.09540
C814        C  0.94284972  0.80871184  0.84820113     0.29340
F815        F  0.93107631  0.79772604  0.81262701    -0.20060
H816        H  0.93934461  0.75219920  0.87051908     0.17710
H817        H  0.96530345  0.88767363  0.90058579     0.17710
F818        F  0.97177120  0.84199656  0.95936490    -0.20050
C819        C  0.85588794  0.47478457  0.40450743    -0.21480
C820        C  0.84406269  0.46722077  0.36667694    -0.09520
C821        C  0.80494062  0.45955252  0.35894899     0.29330
C822        C  0.77769143  0.46203635  0.38828042    -0.21480
C823        C  0.78921676  0.47243685  0.42546241    -0.09540
C824        C  0.82860856  0.47762327  0.43376231     0.29340
F825        F  0.84020201  0.48884046  0.46931812    -0.20060
H826        H  0.88569074  0.48211722  0.41067914     0.17710
H827        H  0.74732720  0.45851740  0.38142736     0.17710
F828        F  0.79272739  0.45309068  0.32241764    -0.20050
C829        C  0.94292558  0.63195462  0.34705247    -0.21480
C830        C  0.94107995  0.59372217  0.35814126    -0.09520
C831        C  0.94805893  0.58432842  0.39695911     0.29330
C832        C  0.95367266  0.61300091  0.42435746    -0.21480
C833        C  0.95275784  0.65146535  0.41364069    -0.09540
C834        C  0.94908463  0.66054086  0.37427156     0.29340
F835        F  0.94929828  0.69722599  0.36207965    -0.20060
H836        H  0.93856534  0.63988199  0.31731491     0.17710
H837        H  0.95627948  0.60510234  0.45427995     0.17710
F838        F  0.94687910  0.54764063  0.40903322    -0.20050
C839        C  0.92181662  0.63945521  0.17924841    -0.21480
C840        C  0.91396902  0.60060566  0.17282972    -0.09520
C841        C  0.90881286  0.58742411  0.13533288     0.29330
C842        C  0.91361116  0.61183467  0.10461057    -0.21480
C843        C  0.92384086  0.65017868  0.11016661    -0.09540
C844        C  0.92672931  0.66436289  0.14786878     0.29340
F845        F  0.93680607  0.70113259  0.15428660    -0.20060
H846        H  0.92581181  0.64997896  0.20821349     0.17710
H847        H  0.91110719  0.59994490  0.07606942     0.17710
F848        F  0.90063918  0.55023870  0.12830861    -0.20050
C849        C  0.96344961  0.12599601  0.22719105    -0.21480
C850        C  0.97123660  0.08831624  0.21664198    -0.09520
C851        C  0.97076214  0.07844825  0.17737841     0.29330
C852        C  0.96618784  0.10662034  0.14932574    -0.21480
C853        C  0.96180190  0.14490729  0.15994786    -0.09540
C854        C  0.95827689  0.15398648  0.19924277     0.29340
F855        F  0.95230484  0.19042284  0.21084361    -0.20060
H856        H  0.96284885  0.13408501  0.25717704     0.17710
H857        H  0.96916772  0.09883938  0.11942219     0.17710
F858        F  0.97820048  0.04223238  0.16594499    -0.20050
C859        C  0.99488677  0.33883466  0.20667015    -0.21480
C860        C  0.96586181  0.32020678  0.18545468    -0.09520
C861        C  0.92697386  0.32936710  0.19226167     0.29330
C862        C  0.91767271  0.35981075  0.21618075    -0.21480
C863        C  0.94691794  0.38131432  0.23385764    -0.09540
C864        C  0.98554465  0.36934976  0.23072305     0.29340
F865        F  0.01455832  0.39002106  0.24681104    -0.20060
H866        H  0.02504029  0.33222017  0.20188661     0.17710
H867        H  0.88773500  0.36845844  0.21853305     0.17710
F868        F  0.89808619  0.31067243  0.17366992    -0.20050
C869        C  0.29874624  0.47740968  0.22827946    -0.21480
C870        C  0.33811665  0.47507634  0.21860821    -0.09520
C871        C  0.34811432  0.47173095  0.17962614     0.29330
C872        C  0.31942142  0.47390987  0.15113928    -0.21480
C873        C  0.28073927  0.47973804  0.16117767    -0.09540
C874        C  0.27036823  0.48024205  0.19984845     0.29340
F875        F  0.23296899  0.48541967  0.21007135    -0.20060
H876        H  0.28994920  0.47961868  0.25793653     0.17710
H877        H  0.32767644  0.47361275  0.12123652     0.17710
F878        F  0.38560005  0.46916688  0.16884662    -0.20050
C879        C  0.12129771  0.32941775  0.11079062    -0.21480
C880        C  0.09539331  0.32175120  0.08060830    -0.09520
C881        C  0.09762562  0.34283745  0.04654608     0.29330
C882        C  0.12378281  0.37282836  0.04369142    -0.21480
C883        C  0.14709934  0.38288227  0.07515590    -0.09540
C884        C  0.14671675  0.36030511  0.10833812     0.29340
F885        F  0.16853683  0.37004370  0.13933359    -0.20060
H886        H  0.11942869  0.31372303  0.13741934     0.17710
H887        H  0.12306829  0.39057836  0.01829051     0.17710
F888        F  0.07237623  0.33637386  0.01725030    -0.20050
C889        C  0.08249043  0.54852509  0.19536416    -0.21480
C890        C  0.10552515  0.51700772  0.18617758    -0.09520
C891        C  0.10058841  0.48269685  0.20599460     0.29330
C892        C  0.07034378  0.47899376  0.23206661    -0.21480
C893        C  0.04511639  0.50956126  0.23879595    -0.09540
C894        C  0.05254013  0.54495021  0.22175836     0.29340
F895        F  0.02782859  0.57454595  0.22682732    -0.20060
H896        H  0.08580736  0.57503123  0.17990617     0.17710
H897        H  0.06433359  0.45126798  0.24412968     0.17710
F898        F  0.12232645  0.45176732  0.19714936    -0.20050
C899        C  0.06445102  0.66437357  0.05479359    -0.21480
C900        C  0.05245453  0.66218324  0.01614731    -0.09520
C901        C  0.07143461  0.63684055  0.99149452     0.29330
C902        C  0.09798478  0.61084987  0.00636035    -0.21480
C903        C  0.10634736  0.60975877  0.04582002    -0.09540
C904        C  0.09114888  0.63825196  0.06968318     0.29340
F905        F  0.09881802  0.63844347  0.10793179    -0.20060
H906        H  0.05025495  0.68370169  0.07450066     0.17710
H907        H  0.11025199  0.58980638  0.98717367     0.17710
F908        F  0.06185466  0.63493514  0.95371033    -0.20050
C909        C  0.07608854  0.47293858  0.67744910    -0.21480
C910        C  0.08455014  0.47018383  0.71667763    -0.09520
C911        C  0.12317992  0.46516980  0.72852211     0.29330
C912        C  0.15209841  0.45875066  0.70161010    -0.21480
C913        C  0.14312281  0.45743807  0.66233586    -0.09540
C914        C  0.10514291  0.46679479  0.65032395     0.29340
F915        F  0.09509769  0.46642748  0.61261044    -0.20060
H916        H  0.04643193  0.47603424  0.66778383     0.17710
H917        H  0.18109228  0.45247899  0.71169102     0.17710
F918        F  0.13225073  0.46265453  0.76639720    -0.20050
C919        C  0.99975814  0.28176939  0.70613406    -0.21480
C920        C  0.98091746  0.28672214  0.67057531    -0.09520
C921        C  0.96175209  0.32138850  0.66344146     0.29330
C922        C  0.96283315  0.35071130  0.69101325    -0.21480
C923        C  0.98307359  0.34590964  0.72596404    -0.09540
C924        C  0.00116963  0.31074838  0.73322486     0.29340
F925        F  0.02240529  0.30475539  0.76559400    -0.20060
H926        H  0.01526644  0.25574118  0.71264561     0.17710
H927        H  0.94868133  0.37748920  0.68461423     0.17710
F928        F  0.94262952  0.32719956  0.62982545    -0.20050
C929        C  0.95424457  0.30571422  0.94232329    -0.21480
C930        C  0.98653822  0.28538085  0.95574683    -0.09520
C931        C  0.02277804  0.29233776  0.93958852     0.29330
C932        C  0.02714631  0.32119018  0.91252429    -0.21480
C933        C  0.99559849  0.34422008  0.90182352    -0.09540
C934        C  0.95866162  0.33514210  0.91567466     0.29340
F935        F  0.92722661  0.35583511  0.90504432    -0.20060
H936        H  0.92625680  0.30136892  0.95529050     0.17710
H937        H  0.05585300  0.32724844  0.90206272     0.17710
F938        F  0.05459790  0.27381148  0.95292712    -0.20050
C939        C  0.11889883  0.49940768  0.90006155    -0.21480
C940        C  0.11444281  0.46161972  0.88784331    -0.09520
C941        C  0.13637335  0.43279515  0.90538521     0.29330
C942        C  0.15897928  0.44117095  0.93772698    -0.21480
C943        C  0.16040819  0.47840904  0.95222937    -0.09540
C944        C  0.14220889  0.50786977  0.93185977     0.29340
F945        F  0.14336142  0.54405208  0.94533761    -0.20060
H946        H  0.10170456  0.52182414  0.88709164     0.17710
H947        H  0.17224376  0.41804629  0.95361862     0.17710
F948        F  0.13197237  0.39596648  0.89437829    -0.20050
C949        C  0.93570746  0.58030388  0.83202414    -0.21480
C950        C  0.97445165  0.56856727  0.83629771    -0.09520
C951        C  0.99970324  0.59131662  0.85823989     0.29330
C952        C  0.98542507  0.62231039  0.87900376    -0.21480
C953        C  0.94581028  0.63096461  0.87865536    -0.09540
C954        C  0.92132349  0.61105244  0.85341929     0.29340
F955        F  0.88278076  0.61813447  0.85316891    -0.20060
H956        H  0.91554765  0.56315484  0.81556301     0.17710
H957        H  0.00464825  0.63702270  0.89868412     0.17710
F958        F  0.03741033  0.58143739  0.86260024    -0.20050
C959        C  0.62649050  0.47034819  0.84961732    -0.21480
C960        C  0.58786810  0.47420351  0.86100245    -0.09520
C961        C  0.57941502  0.47640254  0.90017436     0.29330
C962        C  0.60875937  0.47055855  0.92743402    -0.21480
C963        C  0.64674545  0.46201948  0.91588623    -0.09540
C964        C  0.65578841  0.46432488  0.87672776     0.29340
F965        F  0.69229725  0.45792304  0.86435766    -0.20060
H966        H  0.63340573  0.46821291  0.81943037     0.17710
H967        H  0.60096795  0.46936840  0.95742459     0.17710
F968        F  0.54224612  0.47914675  0.91195695    -0.20050
C969        C  0.85006781  0.56208625  0.99635588    -0.21480
C970        C  0.83375118  0.59833871  0.99410229    -0.09520
C971        C  0.79323642  0.60224219  0.99475361     0.29330
C972        C  0.76973156  0.56985285  0.00006426    -0.21480
C973        C  0.78672658  0.53365013  0.00430102    -0.09540
C974        C  0.82721115  0.53026179  0.00096950     0.29340
F975        F  0.84528839  0.49594969  0.00258570    -0.20060
H976        H  0.88110267  0.55829787  0.99471759     0.17710
H977        H  0.73873185  0.57318812  0.00218552     0.17710
F978        F  0.77671156  0.63718254  0.99213406    -0.20050
C979        C  0.83521035  0.39802991  0.87637351    -0.21480
C980        C  0.82077769  0.42728578  0.89993278    -0.09520
C981        C  0.83178633  0.46501592  0.89256543     0.29330
C982        C  0.85961754  0.47278625  0.86500221    -0.21480
C983        C  0.87735804  0.44319005  0.84446913    -0.09540
C984        C  0.86357028  0.40586074  0.84887217     0.29340
F985        F  0.88060024  0.37655493  0.83002459    -0.20060
H986        H  0.82687373  0.36876755  0.88134132     0.17710
H987        H  0.86989044  0.50175882  0.86211437     0.17710
F988        F  0.81720285  0.49425170  0.91347122    -0.20050
C989        C  0.84877813  0.25667534  0.00822654    -0.21480
C990        C  0.86106730  0.26022429  0.04657223    -0.09520
C991        C  0.83867419  0.28149740  0.07218867     0.29330
C992        C  0.80707834  0.30244998  0.05862230    -0.21480
C993        C  0.79785770  0.30284766  0.01933525    -0.09540
C994        C  0.81733453  0.27801580  0.99454325     0.29340
F995        F  0.80952593  0.27849816  0.95633262    -0.20060
H996        H  0.86631043  0.24111345  0.98791165     0.17710
H997        H  0.79285220  0.32202883  0.07798255     0.17710
F998        F  0.85042092  0.28607231  0.10914066    -0.20050
C999        C  0.75772805  0.46503788  0.15070692    -0.21480
C1000       C  0.77296090  0.43433817  0.12936234    -0.09520
C1001       C  0.80776785  0.41761158  0.14208769     0.29330
C1002       C  0.82895150  0.43433688  0.17188270    -0.21480
C1003       C  0.81578408  0.46744972  0.19025228    -0.09540
C1004       C  0.77896266  0.48149972  0.18100646     0.29340
F1005       F  0.76541775  0.51339733  0.19830920    -0.20060
H1006       H  0.73090242  0.47843366  0.14191252     0.17710
H1007       H  0.85723908  0.42292691  0.17871350     0.17710
F1008       F  0.82345770  0.38743705  0.12343267    -0.20050
C1009       C  0.82416390  0.85454421  0.03955721    -0.21480
C1010       C  0.78576019  0.84508711  0.04747291    -0.09520
C1011       C  0.77572209  0.80620513  0.05054110     0.29330
C1012       C  0.80248928  0.77776656  0.04152519    -0.21480
C1013       C  0.83994591  0.78745697  0.03043631    -0.09540
C1014       C  0.85105864  0.82613357  0.03113297     0.29340
F1015       F  0.88706526  0.83689943  0.02051133    -0.20060
H1016       H  0.83270212  0.88403870  0.03667205     0.17710
H1017       H  0.79361138  0.74823190  0.04215787     0.17710
F1018       F  0.73925305  0.79563105  0.05970900    -0.20050
C1019       C  0.81445759  0.97144689  0.92824854    -0.21480
C1020       C  0.78833579  0.94062602  0.92796739    -0.09520
C1021       C  0.78954757  0.91431337  0.89769558     0.29330
C1022       C  0.81583102  0.91882730  0.86839795    -0.21480
C1023       C  0.84180622  0.94943909  0.86825751    -0.09540
C1024       C  0.84150625  0.97564642  0.89864469     0.29340
F1025       F  0.86628657  0.00551693  0.89912392    -0.20060
H1026       H  0.81412745  0.99195564  0.95146065     0.17710
H1027       H  0.81585178  0.89799561  0.84542243     0.17710
F1028       F  0.76468496  0.88449726  0.89572758    -0.20050
C1029       C  0.47854838  0.32929701  0.92480359    -0.21480
C1030       C  0.46925570  0.29229382  0.91270950    -0.09520
C1031       C  0.46294504  0.28550733  0.87324620     0.29330
C1032       C  0.46929393  0.31426830  0.84635985    -0.21480
C1033       C  0.48126783  0.35050713  0.85826730    -0.09540
C1034       C  0.48451179  0.35821909  0.89789845     0.29340
F1035       F  0.49657079  0.39281498  0.91057527    -0.20060
H1036       H  0.48425984  0.33514323  0.95483764     0.17710
H1037       H  0.46583235  0.30792493  0.81611282     0.17710
F1038       F  0.45270684  0.25038817  0.86046890    -0.20050
C1039       C  0.56967612  0.32125016  0.03623090    -0.21480
C1040       C  0.58078777  0.28445496  0.02471291    -0.09520
C1041       C  0.62005489  0.27632171  0.01979719     0.29330
C1042       C  0.64747087  0.30518171  0.02347952    -0.21480
C1043       C  0.63624391  0.34278646  0.03155367    -0.09540
C1044       C  0.59725997  0.35047167  0.03937908     0.29340
F1045       F  0.58537551  0.38670709  0.04592775    -0.20060
H1046       H  0.53937330  0.32804546  0.03967461     0.17710
H1047       H  0.67731382  0.29878990  0.01685444     0.17710
F1048       F  0.63159352  0.24097485  0.00897581    -0.19330
C1049       C  0.62752820  0.11007634  0.01211524    -0.21480
C1050       C  0.60464834  0.11152382  0.97864774    -0.09520
C1051       C  0.61117692  0.08516225  0.94925753     0.29330
C1052       C  0.63790346  0.05594597  0.95446632    -0.21480
C1053       C  0.65749398  0.05144067  0.98969298    -0.09540
C1054       C  0.65377013  0.07996050  0.01782836     0.29340
F1055       F  0.67174225  0.07632668  0.05236900    -0.20060
H1056       H  0.62260349  0.13020064  0.03512581     0.17710
H1057       H  0.64028414  0.03442217  0.93232024     0.17710
F1058       F  0.58940984  0.08583502  0.91670795    -0.20050
C1059       C  0.62546196  0.97721516  0.35166409    -0.21480
C1060       C  0.58781727  0.96688811  0.36223999    -0.09520
C1061       C  0.58039749  0.95781077  0.40066501     0.29330
C1062       C  0.60946125  0.96282733  0.42852959    -0.21480
C1063       C  0.64566114  0.97761007  0.41822978    -0.09540
C1064       C  0.65405999  0.98301758  0.37941357     0.29340
F1065       F  0.68911168  0.99632712  0.36861196    -0.20060
H1066       H  0.63162084  0.98458960  0.32217095     0.17710
H1067       H  0.60260554  0.95851053  0.45846296     0.17710
F1068       F  0.54411486  0.94874914  0.41184690    -0.20050
C1069       C  0.46612089  0.12481598  0.34692114    -0.21480
C1070       C  0.47527883  0.08781844  0.35882685    -0.09520
C1071       C  0.47503314  0.07923008  0.39835604     0.29330
C1072       C  0.46911042  0.10803593  0.42537388    -0.21480
C1073       C  0.46335373  0.14572456  0.41348309    -0.09540
C1074       C  0.45980555  0.15349791  0.37391557     0.29340
F1075       F  0.45265656  0.18937084  0.36125380    -0.20060
H1076       H  0.46521526  0.13184999  0.31668855     0.17710
H1077       H  0.47229799  0.10134946  0.45555721     0.17710
F1078       F  0.48383029  0.04375331  0.41114513    -0.20050
C1079       C  0.53942639  0.10199023  0.15205580    -0.21480
C1080       C  0.50690004  0.09678557  0.17504506    -0.09520
C1081       C  0.47349934  0.11848020  0.16798648     0.29330
C1082       C  0.47188341  0.14311324  0.13641603    -0.21480
C1083       C  0.50328076  0.14552303  0.11130486    -0.09540
C1084       C  0.53759588  0.12577171  0.12018097     0.29340
F1085       F  0.56848767  0.12743138  0.09649352    -0.20060
H1086       H  0.56547992  0.08556868  0.15726355     0.17710
H1087       H  0.44514580  0.15785782  0.12992151     0.17710
F1088       F  0.44223971  0.11498997  0.19086190    -0.20050
C1089       C  0.61959593  0.94465372  0.18205833    -0.21480
C1090       C  0.61744017  0.98185997  0.19651491    -0.09520
C1091       C  0.64180644  0.01001739  0.18161059     0.29330
C1092       C  0.66482087  0.00187107  0.14974372    -0.21480
C1093       C  0.66415219  0.96547192  0.13312389    -0.09540
C1094       C  0.64300019  0.93637949  0.15069792     0.29340
F1095       F  0.64146483  0.90110784  0.13479975    -0.20060
H1096       H  0.60046216  0.92282940  0.19281964     0.17710
H1097       H  0.68037314  0.02475290  0.13598669     0.17710
F1098       F  0.63966776  0.04636086  0.19468943    -0.20050
C1099       C  0.13004930  0.12129748  0.02085114    -0.21480
C1100       C  0.12821729  0.08858105  0.04387947    -0.09520
C1101       C  0.09560003  0.08268914  0.06681173     0.29330
C1102       C  0.06710968  0.11050574  0.06944188    -0.21480
C1103       C  0.07026089  0.14451574  0.04891198    -0.09540
C1104       C  0.10087758  0.14915342  0.02306791     0.29340
F1105       F  0.10442684  0.18192675  0.00288251    -0.20060
H1106       H  0.15539747  0.12670124  0.00372164     0.17710
H1107       H  0.04356666  0.10642866  0.08931453     0.17710
F1108       F  0.09322686  0.05155831  0.08966829    -0.20050
C1109       C  0.15062084  0.98093040  0.19828288    -0.21480
C1110       C  0.14145565  0.98262720  0.15906999    -0.09520
C1111       C  0.10369200  0.97260185  0.14702268     0.29330
C1112       C  0.07475535  0.96628071  0.17414959    -0.21480
C1113       C  0.08328210  0.96904386  0.21336310    -0.09540
C1114       C  0.12189384  0.97397102  0.22517774     0.29340
F1115       F  0.13099886  0.97643898  0.26304648    -0.20060
H1116       H  0.17954650  0.98740792  0.20838412     0.17710
H1117       H  0.04509760  0.96313306  0.16452237     0.17710
F1118       F  0.09371299  0.97230026  0.10929760    -0.20050
C1119       C  0.33923006  0.04574994  0.19944762    -0.21480
C1120       C  0.31802506  0.01481190  0.18480293    -0.09520
C1121       C  0.32517576  0.97822825  0.19949284     0.29330
C1122       C  0.35562735  0.97218960  0.22534601    -0.21480
C1123       C  0.37916844  0.00252661  0.23716632    -0.09540
C1124       C  0.36984961  0.03964065  0.22530532     0.29340
F1125       F  0.39312036  0.06921583  0.23507853    -0.20060
H1126       H  0.33438525  0.07413478  0.18828780     0.17710
H1127       H  0.36287235  0.94332448  0.23364342     0.17710
F1128       F  0.30425520  0.94796893  0.18699460    -0.20050
C1129       C  0.34583847  0.14713105  0.00254174    -0.21480
C1130       C  0.37054674  0.16782520  0.02684008    -0.09520
C1131       C  0.36120914  0.17120494  0.06590767     0.29330
C1132       C  0.32997572  0.15088692  0.08101412    -0.21480
C1133       C  0.30724904  0.12756895  0.05721690    -0.09540
C1134       C  0.31414199  0.12749860  0.01749961     0.29340
F1135       F  0.29277929  0.10506777  0.99378534    -0.20060
H1136       H  0.35299790  0.14347440  0.97257013     0.17710
H1137       H  0.32574992  0.15062145  0.11176274     0.17710
F1138       F  0.38497697  0.19048603  0.09020910    -0.20050
C1139       C  0.43662129  0.62970163  0.23408541    -0.21480
C1140       C  0.44712689  0.59262096  0.22402818    -0.09520
C1141       C  0.46430724  0.58575476  0.18819500     0.29330
C1142       C  0.46705111  0.61525057  0.16126905    -0.21480
C1143       C  0.45327361  0.65169603  0.17033299    -0.09540
C1144       C  0.44013747  0.65913762  0.20770019     0.29340
F1145       F  0.42717927  0.69431505  0.21743061    -0.20060
H1146       H  0.42407423  0.63554109  0.26185451     0.17710
H1147       H  0.47649256  0.60882708  0.13243145     0.17710
F1148       F  0.47482865  0.54995332  0.17792533    -0.20050
C1149       C  0.29640540  0.65791176  0.04729653    -0.21480
C1150       C  0.33488112  0.64870891  0.05588954    -0.09520
C1151       C  0.34627028  0.61014832  0.05609633     0.29330
C1152       C  0.31868126  0.58142616  0.05169033    -0.21480
C1153       C  0.27953235  0.59073271  0.04695767    -0.09540
C1154       C  0.26896793  0.62926625  0.04245630     0.29340
F1155       F  0.23159704  0.63942612  0.03612074    -0.20060
H1156       H  0.28719322  0.68737026  0.04609437     0.17710
H1157       H  0.32753453  0.55206183  0.05534347     0.17710
F1158       F  0.38330241  0.60003463  0.06421512    -0.20050
C1159       C  0.29721176  0.83924515  0.04790852    -0.21480
C1160       C  0.31161054  0.82990112  0.08445469    -0.09520
C1161       C  0.30006509  0.85150932  0.11638198     0.29330
C1162       C  0.27689203  0.88371846  0.11117047    -0.21480
C1163       C  0.26521857  0.89470654  0.07424350    -0.09540
C1164       C  0.27417851  0.87153073  0.04277317     0.29340
F1165       F  0.26335383  0.88192863  0.00677154    -0.20060
H1166       H  0.30578657  0.82290644  0.02304472     0.17710
H1167       H  0.27099647  0.90197723  0.13548713     0.17710
F1168       F  0.31489810  0.84426396  0.15181673    -0.20050
C1169       C  0.43636328  0.86249771  0.24582482    -0.21480
C1170       C  0.47388524  0.87512914  0.23697665    -0.09520
C1171       C  0.49587363  0.85399288  0.21073488     0.29330
C1172       C  0.47908920  0.82357935  0.19084808    -0.21480
C1173       C  0.44016021  0.81406322  0.19636447    -0.09540
C1174       C  0.41940165  0.83244258  0.22530799     0.29340
F1175       F  0.38162125  0.82406479  0.23088539    -0.20060
H1176       H  0.41870382  0.87824621  0.26586341     0.17710
H1177       H  0.49561372  0.80954415  0.16872952     0.17710
F1178       F  0.53246516  0.86455598  0.20201516    -0.20050
C1179       C  0.57153040  0.85194220  0.07250723    -0.21480
C1180       C  0.60060815  0.83685062  0.04931490    -0.09520
C1181       C  0.59900576  0.79812110  0.03887062     0.29330
C1182       C  0.56731683  0.77575421  0.04991079    -0.21480
C1183       C  0.53725919  0.79187041  0.07151301    -0.09540
C1184       C  0.54024616  0.83025177  0.08310821     0.29340
F1185       F  0.51147363  0.84836217  0.10215210    -0.20060
H1186       H  0.57157164  0.88164618  0.08090393     0.17710
H1187       H  0.56565958  0.74638863  0.04058264     0.17710
F1188       F  0.62741757  0.78219979  0.01757656    -0.20050
C1189       C  0.30591436  0.96024932  0.72324129    -0.21480
C1190       C  0.34496481  0.95312963  0.71460609    -0.09520
C1191       C  0.35493639  0.94568233  0.67627232     0.29330
C1192       C  0.32611442  0.94317149  0.64792561    -0.21480
C1193       C  0.28686219  0.94745024  0.65725780    -0.09540
C1194       C  0.27711941  0.95725502  0.69499455     0.29340
F1195       F  0.23970750  0.96299771  0.70480706    -0.20060
H1196       H  0.29735954  0.96627561  0.75244128     0.17710
H1197       H  0.33436826  0.93550813  0.61901778     0.17710
F1198       F  0.39196860  0.93759350  0.66666156    -0.20050
C1199       C  0.47089710  0.84692423  0.69029228    -0.21480
C1200       C  0.45116660  0.83771306  0.72420444    -0.09520
C1201       C  0.43844416  0.80038559  0.72980944     0.29330
C1202       C  0.44242360  0.77358185  0.70063878    -0.21480
C1203       C  0.45827809  0.78372954  0.66506942    -0.09540
C1204       C  0.47414634  0.82013261  0.66057031     0.29340
F1205       F  0.48885361  0.83098930  0.62634329    -0.20060
H1206       H  0.48106427  0.87567543  0.68565737     0.17710
H1207       H  0.43002861  0.74558383  0.70464063     0.17710
F1208       F  0.42053595  0.79034372  0.76276515    -0.20050
C1209       C  0.57884240  0.94187152  0.85434681    -0.21480
C1210       C  0.55225141  0.91181562  0.85174599    -0.09520
C1211       C  0.55985942  0.87784295  0.87187773     0.29330
C1212       C  0.59068401  0.87586651  0.89777405    -0.21480
C1213       C  0.61459232  0.90741579  0.90356905    -0.09540
C1214       C  0.60988231  0.93977172  0.88038152     0.29340
F1215       F  0.63274578  0.97067935  0.88581162    -0.20060
H1216       H  0.57325686  0.96841744  0.83954012     0.17710
H1217       H  0.59391904  0.85084406  0.91565978     0.17710
F1218       F  0.53496181  0.84806286  0.86965992    -0.20050
C1219       C  0.38396615  0.80456030  0.96445870    -0.21480
C1220       C  0.41360676  0.77738164  0.96598255    -0.09520
C1221       C  0.43795375  0.77283205  0.93427097     0.29330
C1222       C  0.43439717  0.79752137  0.90275690    -0.21480
C1223       C  0.40705543  0.82711936  0.90329992    -0.09540
C1224       C  0.38085482  0.82947944  0.93362607     0.29340
F1225       F  0.35410789  0.85777789  0.93476761    -0.20060
H1226       H  0.36532127  0.80877032  0.98883566     0.17710
H1227       H  0.45503038  0.79565308  0.87964936     0.17710
F1228       F  0.46740511  0.74733226  0.93548941    -0.20050
C1229       C  0.29324627  0.95384415  0.90248885    -0.21480
C1230       C  0.33001164  0.96998292  0.89726637    -0.09520
C1231       C  0.34024261  0.00214142  0.91949582     0.29330
C1232       C  0.31553292  0.01617887  0.94720946    -0.21480
C1233       C  0.28057013  0.99793149  0.95525735    -0.09540
C1234       C  0.26864178  0.96760419  0.93136727     0.29340
F1235       F  0.23453346  0.94972150  0.93739032    -0.20060
H1236       H  0.28440539  0.92936691  0.88570091     0.17710
H1237       H  0.32568723  0.03968017  0.96470861     0.17710
F1238       F  0.37565402  0.01845157  0.91727376    -0.20050
C1239       C  0.49544023  0.06672692  0.83495790    -0.21480
C1240       C  0.45881484  0.04986221  0.83428303    -0.09520
C1241       C  0.42815165  0.06798269  0.85296133     0.29330
C1242       C  0.43529056  0.09944389  0.87657938    -0.21480
C1243       C  0.47296873  0.11384353  0.88087266    -0.09540
C1244       C  0.50237928  0.09911557  0.85738226     0.29340
F1245       F  0.53881483  0.11316280  0.85929490    -0.20060
H1246       H  0.51943251  0.05291827  0.82080536     0.17710
H1247       H  0.41190524  0.11076747  0.89363904     0.17710
F1248       F  0.39216528  0.05280195  0.85154667    -0.20050
loop_ 
_geom_bond_atom_site_label_1 
_geom_bond_atom_site_label_2 
_geom_bond_distance 
_geom_bond_site_symmetry_2 
_ccdc_geom_bond_type 
O1          Cr19   2.002       .  S
O1            C9   1.261       .  A
O2          Cr19   1.946       .  S
O2            C3   1.257       .  A
C3            O4   1.277       .  A
C3         C1210   1.474       .  S
O4          Cr20   2.050       .  S
O5          Cr20   1.961       .  S
O5            C6   1.258       .  A
C6            O7   1.274       .  A
C6         C1200   1.471       .  S
O7          Cr21   2.022       .  S
O8          Cr21   1.986       .  S
O8            C9   1.255       .  A
C9         C1223   1.468       .  S
O10         Cr19   1.944       .  S
O10          C18   1.256       .  A
O11         Cr19   2.000       .  S
O11          C12   1.261   1_565  A
C12          O13   1.259   1_545  A
C12        C1240   1.466       .  S
O13         Cr20   1.993       .  S
O14         Cr20   2.033       .  S
O14          C15   1.271       .  A
C15          O16   1.256       .  A
C15        C1190   1.485       .  S
O16         Cr21   1.960       .  S
O17         Cr21   2.052       .  S
O17          C18   1.277       .  A
C18        C1230   1.489       .  S
Cr19         O22   1.749       .  S
Cr20         O22   1.773       .  S
Cr21         O22   1.760       .  S
O23         Cr41   1.989       .  S
O23          C31   1.259       .  A
O24         Cr41   1.943       .  S
O24          C25   1.250       .  A
C25          O26   1.269       .  A
C25        C1183   1.478       .  S
O26         Cr42   2.039       .  S
O27         Cr42   2.005       .  S
O27          C28   1.268       .  A
C28          O29   1.261       .  A
C28        C1143   1.468       .  S
O29         Cr43   1.974       .  S
O30         Cr43   2.003       .  S
O30          C31   1.260       .  A
C31        C1173   1.469       .  S
O32         Cr41   1.967       .  S
O32          C40   1.258       .  A
O33         Cr41   1.987       .  S
O33          C34   1.260       .  A
C34          O35   1.263       .  A
C34        C1220   1.467   1_554  S
O35         Cr42   2.001       .  S
O36         Cr42   2.005       .  S
O36          C37   1.268       .  A
C37          O38   1.267       .  A
C37        C1150   1.475       .  S
O38         Cr43   1.982       .  S
O39         Cr43   2.018       .  S
O39          C40   1.267       .  A
C40        C1160   1.470       .  S
Cr41         O44   1.747       .  S
Cr42         O44   1.778       .  S
Cr43         O44   1.760       .  S
O45         Cr63   1.977   1_565  S
O45          C53   1.259   1_565  A
O46         Cr63   1.991   1_565  S
O46          C47   1.260       .  A
C47          O48   1.258       .  A
C47        C1163   1.461       .  S
O48         Cr64   1.988       .  S
O49         Cr64   2.004       .  S
O49          C50   1.267       .  A
C50          O51   1.269   1_565  A
C50        C1110   1.485       .  S
O51         Cr65   1.991       .  S
O52         Cr65   2.022       .  S
O52          C53   1.266       .  A
C53        C1120   1.478       .  S
O54         Cr63   1.999       .  S
O54          C62   1.263       .  A
O55         Cr63   1.957       .  S
O55          C56   1.258   1_554  A
C56          O57   1.269   1_546  A
C56        C1233   1.485   1_545  S
O57         Cr64   2.031       .  S
O58         Cr64   2.002   1_545  S
O58          C59   1.265       .  A
C59          O60   1.262       .  A
C59        C1100   1.470       .  S
O60         Cr65   1.986       .  S
O61         Cr65   2.006       .  S
O61          C62   1.264       .  A
C62        C1133   1.476       .  S
Cr63         O66   1.756       .  S
Cr64         O66   1.778   1_565  S
Cr65         O66   1.765       .  S
O67         Cr85   1.991       .  S
O67          C75   1.263       .  A
O68         Cr85   1.981       .  S
O68          C69   1.260       .  A
C69          O70   1.264       .  A
C69        C1170   1.482       .  S
O70         Cr86   2.009       .  S
O71         Cr86   2.006       .  S
O71          C72   1.269       .  A
C72          O73   1.262   1_565  A
C72        C1060   1.469       .  S
O73         Cr87   1.977       .  S
O74         Cr87   1.990       .  S
O74          C75   1.262   1_545  A
C75        C1090   1.467       .  S
O76         Cr85   1.989   1_545  S
O76          C84   1.260       .  A
O77         Cr85   1.989       .  S
O77          C78   1.261       .  A
C78          O79   1.265   1_565  A
C78        C1123   1.468   1_565  S
O79         Cr86   2.003   1_545  S
O80         Cr86   1.994   1_545  S
O80          C81   1.262       .  A
C81          O82   1.264       .  A
C81        C1070   1.476       .  S
O82         Cr87   1.990       .  S
O83         Cr87   1.993       .  S
O83          C84   1.259       .  A
C84        C1080   1.468       .  S
Cr85         O88   1.763   1_565  S
Cr86         O88   1.777   1_565  S
Cr87         O88   1.770       .  S
O89        Cr107   2.012       .  S
O89          C97   1.265       .  A
O90        Cr107   1.949   1_554  S
O90          C91   1.258       .  A
C91          O92   1.275       .  A
C91        C1083   1.471       .  S
O92        Cr108   2.039       .  S
O93        Cr108   1.982       .  S
O93          C94   1.258       .  A
C94          O95   1.265   1_554  A
C94        C1040   1.474       .  S
O95        Cr109   2.006       .  S
O96        Cr109   1.987       .  S
O96          C97   1.257       .  A
C97        C1050   1.471       .  S
O98        Cr107   1.973       .  S
O98         C106   1.260       .  A
O99        Cr107   1.998   1_554  S
O99         C100   1.262       .  A
C100        O101   1.262       .  A
C100       C1130   1.476       .  S
O101       Cr108   1.997       .  S
O102       Cr108   2.040   1_556  S
O102        C103   1.275       .  A
C103        O104   1.257       .  A
C103       C1030   1.481       .  S
O104       Cr109   1.954       .  S
O105       Cr109   2.027       .  S
O105        C106   1.270       .  A
C106       C1243   1.482       .  S
Cr107       O110   1.758       .  S
Cr108       O110   1.780   1_554  S
Cr109       O110   1.764       .  S
O111       Cr129   1.948       .  S
O111        C119   1.256       .  A
O112       Cr129   2.003       .  S
O112        C113   1.263       .  A
C113        O114   1.260       .  A
C113       C1093   1.467       .  S
O114       Cr130   1.990       .  S
O115       Cr130   2.042       .  S
O115        C116   1.274       .  A
C116        O117   1.252       .  A
C116       C1010   1.481       .  S
O117       Cr131   1.951   1_554  S
O118       Cr131   2.027   1_554  S
O118        C119   1.268       .  A
C119       C1180   1.475       .  S
O120       Cr129   2.006   1_556  S
O120        C128   1.265       .  A
O121       Cr129   1.940   1_556  S
O121        C122   1.255   1_565  A
C122        O123   1.278   1_556  A
C122       C1053   1.479       .  S
O123       Cr130   2.059   1_545  S
O124       Cr130   1.974   1_556  S
O124        C125   1.261       .  A
C125        O126   1.270       .  A
C125       C1020   1.475       .  S
O126       Cr131   2.007       .  S
O127       Cr131   1.981       .  S
O127        C128   1.257       .  A
C128       C1213   1.464       .  S
Cr129       O132   1.742       .  S
Cr130       O132   1.773       .  S
Cr131       O132   1.758   1_556  S
O133       Cr151   1.982   1_556  S
O133        C141   1.262       .  A
O134       Cr151   1.970       .  S
O134        C135   1.254       .  A
C135        O136   1.268       .  A
C135        C973   1.483       .  S
O136       Cr152   2.030       .  S
O137       Cr152   1.999   1_556  S
O137        C138   1.264       .  A
C138        O139   1.264       .  A
C138        C963   1.483       .  S
O139       Cr153   1.989       .  S
O140       Cr153   2.016       .  S
O140        C141   1.266       .  A
C141        C980   1.481       .  S
O142       Cr151   1.983       .  S
O142        C150   1.259       .  A
O143       Cr151   1.980       .  S
O143        C144   1.264       .  A
C144        O145   1.271       .  A
C144       C1000   1.491       .  S
O145       Cr152   2.024       .  S
O146       Cr152   2.010       .  S
O146        C147   1.270       .  A
C147        O148   1.263   1_554  A
C147       C1043   1.474       .  S
O148       Cr153   1.982       .  S
O149       Cr153   2.001       .  S
O149        C150   1.261   1_556  A
C150        C993   1.467       .  S
Cr151       O154   1.758       .  S
Cr152       O154   1.776       .  S
Cr153       O154   1.768   1_556  S
O155       Cr173   1.992   1_455  S
O155        C163   1.262       .  A
O156       Cr173   1.977   1_455  S
O156        C157   1.263   1_455  A
C157        O158   1.272       .  A
C157        C950   1.485       .  S
O158       Cr174   2.032       .  S
O159       Cr174   2.008   1_455  S
O159        C160   1.269       .  A
C160        O161   1.262       .  A
C160        C910   1.471       .  S
O161       Cr175   1.976       .  S
O162       Cr175   1.983       .  S
O162        C163   1.258       .  A
C163        C940   1.464       .  S
O164       Cr173   1.991       .  S
O164        C172   1.262   1_655  A
O165       Cr173   1.981       .  S
O165        C166   1.258       .  A
C166        O167   1.267       .  A
C166        C983   1.475       .  S
O167       Cr174   2.016       .  S
O168       Cr174   2.020       .  S
O168        C169   1.266       .  A
C169        O170   1.259   1_655  A
C169        C923   1.486       .  S
O170       Cr175   1.968       .  S
O171       Cr175   1.995       .  S
O171        C172   1.263       .  A
C172        C933   1.481   1_455  S
Cr173       O176   1.761   1_655  S
Cr174       O176   1.777   1_655  S
Cr175       O176   1.765       .  S
O177       Cr195   1.963       .  S
O177        C185   1.259       .  A
O178       Cr195   2.000       .  S
O178        C179   1.263   1_554  A
C179        O180   1.259   1_556  A
C179        C943   1.464       .  S
O180       Cr196   1.989       .  S
O181       Cr196   2.027       .  S
O181        C182   1.270       .  A
C182        O183   1.253       .  A
C182       C1153   1.476       .  S
O183       Cr197   1.952       .  S
O184       Cr197   2.021       .  S
O184        C185   1.268       .  A
C185        C903   1.476       .  S
O186       Cr195   2.010       .  S
O186        C194   1.264       .  A
O187       Cr195   1.962       .  S
O187        C188   1.259       .  A
C188        O189   1.272       .  A
C188        C883   1.464       .  S
O189       Cr196   2.034       .  S
O190       Cr196   1.972       .  S
O190        C191   1.259       .  A
C191        O192   1.268       .  A
C191        C873   1.463       .  S
O192       Cr197   2.006       .  S
O193       Cr197   1.977       .  S
O193        C194   1.255       .  A
C194        C890   1.465       .  S
Cr195       O198   1.754       .  S
Cr196       O198   1.776       .  S
Cr197       O198   1.762       .  S
O199       Cr217   2.003   1_455  S
O199        C207   1.266       .  A
O200       Cr217   1.945       .  S
O200        C201   1.254   1_554  A
C201        O202   1.272   1_556  A
C201        C930   1.463       .  S
O202       Cr218   2.039       .  S
O203       Cr218   1.987   1_455  S
O203        C204   1.258       .  A
C204        O205   1.265       .  A
C204       C1103   1.471       .  S
O205       Cr219   2.007       .  S
O206       Cr219   1.981       .  S
O206        C207   1.260       .  A
C207        C880   1.466       .  S
O208       Cr217   1.968       .  S
O208        C216   1.258       .  A
O209       Cr217   1.994       .  S
O209        C210   1.262       .  A
C210        O211   1.260       .  A
C210        C990   1.468       .  S
O211       Cr218   1.990       .  S
O212       Cr218   2.043       .  S
O212        C213   1.276       .  A
C213        O214   1.257       .  A
C213        C853   1.481       .  S
O214       Cr219   1.951   1_655  S
O215       Cr219   2.019       .  S
O215        C216   1.267   1_455  A
C216        C860   1.474       .  S
Cr217       O220   1.751       .  S
Cr218       O220   1.776       .  S
Cr219       O220   1.765   1_455  S
O221       Cr239   1.974       .  S
O221        C229   1.261       .  A
O222       Cr239   1.986       .  S
O222        C223   1.258   1_655  A
C223        O224   1.261   1_455  A
C223        C893   1.464       .  S
O224       Cr240   1.999       .  S
O225       Cr240   1.996       .  S
O225        C226   1.264       .  A
C226        O227   1.267       .  A
C226        C830   1.481       .  S
O227       Cr241   1.991       .  S
O228       Cr241   2.021       .  S
O228        C229   1.268       .  A
C229        C840   1.470       .  S
O230       Cr239   1.981       .  S
O230        C238   1.258       .  A
O231       Cr239   1.961       .  S
O231        C232   1.257       .  A
C232        O233   1.269       .  A
C232        C863   1.470       .  S
O233       Cr240   2.025       .  S
O234       Cr240   1.994       .  S
O234        C235   1.265       .  A
C235        O236   1.263       .  A
C235        C820   1.467       .  S
O236       Cr241   1.988       .  S
O237       Cr241   2.013       .  S
O237        C238   1.263       .  A
C238       C1003   1.477       .  S
Cr239       O242   1.760       .  S
Cr240       O242   1.777       .  S
Cr241       O242   1.770       .  S
O243       Cr261   1.974       .  S
O243        C251   1.255       .  A
O244       Cr261   1.972       .  S
O244        C245   1.258   1_656  A
C245        O246   1.265   1_455  A
C245        C900   1.475       .  S
O246       Cr262   2.011       .  S
O247       Cr262   2.006   1_556  S
O247        C248   1.272       .  A
C248        O249   1.265       .  A
C248        C810   1.471       .  S
O249       Cr263   1.983       .  S
O250       Cr263   2.013       .  S
O250        C251   1.263       .  A
C251        C953   1.473       .  S
O252       Cr261   1.961   1_554  S
O252        C260   1.259   1_554  A
O253       Cr261   1.978   1_554  S
O253        C254   1.258       .  A
C254        O255   1.269       .  A
C254        C843   1.481       .  S
O255       Cr262   2.028       .  S
O256       Cr262   1.980       .  S
O256        C257   1.258       .  A
C257        O258   1.267   1_554  A
C257       C1013   1.479       .  S
O258       Cr263   2.003       .  S
O259       Cr263   2.019       .  S
O259        C260   1.266       .  A
C260        C970   1.473       .  S
Cr261       O264   1.758       .  S
Cr262       O264   1.780   1_554  S
Cr263       O264   1.772       .  S
O265       Cr283   1.991       .  S
O265        C273   1.261       .  A
O266       Cr283   1.938       .  S
O266        C267   1.257       .  A
C267        O268   1.277       .  A
C267        C770   1.469       .  S
O268       Cr284   2.047       .  S
O269       Cr284   1.985       .  S
O269        C270   1.259       .  A
C270        O271   1.267       .  A
C270        C760   1.483       .  S
O271       Cr285   2.001       .  S
O272       Cr285   1.994       .  S
O272        C273   1.260       .  A
C273        C783   1.471       .  S
O274       Cr283   1.970       .  S
O274        C282   1.262       .  A
O275       Cr283   1.987       .  S
O275        C276   1.257   1_655  A
C276        O277   1.260       .  A
C276        C803   1.470       .  S
O277       Cr284   2.004   1_455  S
O278       Cr284   2.037       .  S
O278        C279   1.275       .  A
C279        O280   1.256       .  A
C279        C833   1.484       .  S
O280       Cr285   1.951       .  S
O281       Cr285   2.016       .  S
O281        C282   1.270       .  A
C282        C790   1.478       .  S
Cr283       O286   1.754       .  S
Cr284       O286   1.775       .  S
Cr285       O286   1.763       .  S
O287       Cr305   1.965       .  S
O287        C295   1.260       .  A
O288       Cr305   1.980   1_565  S
O288        C289   1.256       .  A
C289        O290   1.260   1_565  A
C289        C753   1.465       .  S
O290       Cr306   2.001   1_545  S
O291       Cr306   2.025   1_545  S
O291        C292   1.270       .  A
C292        O293   1.258       .  A
C292        C720   1.483       .  S
O293       Cr307   1.959       .  S
O294       Cr307   2.038       .  S
O294        C295   1.274       .  A
C295        C740   1.484       .  S
O296       Cr305   1.988       .  S
O296        C304   1.260       .  A
O297       Cr305   1.957   1_565  S
O297        C298   1.261       .  A
C298        O299   1.274       .  A
C298        C780   1.463       .  S
O299       Cr306   2.035       .  S
O300       Cr306   1.969       .  S
O300        C301   1.257       .  A
C301        O302   1.268   1_565  A
C301       C1063   1.471       .  S
O302       Cr307   2.007       .  S
O303       Cr307   2.003       .  S
O303        C304   1.258       .  A
C304        C733   1.489       .  S
Cr305       O308   1.754       .  S
Cr306       O308   1.781   1_565  S
Cr307       O308   1.770       .  S
O309       Cr327   1.973   1_645  S
O309        C317   1.260   1_655  A
O310       Cr327   1.978   1_655  S
O310        C311   1.255       .  A
C311        O312   1.268   1_565  A
C311        C730   1.483   1_565  S
O312       Cr328   2.035   1_545  S
O313       Cr328   1.999   1_545  S
O313        C314   1.263       .  A
C314        O315   1.265   1_655  A
C314        C850   1.479       .  S
O315       Cr329   1.989       .  S
O316       Cr329   2.007       .  S
O316        C317   1.265       .  A
C317        C703   1.475       .  S
O318       Cr327   1.981   1_545  S
O318        C326   1.256   1_545  A
O319       Cr327   1.966       .  S
O319        C320   1.260   1_455  A
C320        O321   1.270       .  A
C320        C793   1.474       .  S
O321       Cr328   2.021       .  S
O322       Cr328   2.007   1_455  S
O322        C323   1.269       .  A
C323        O324   1.261   1_565  A
C323       C1113   1.467       .  S
O324       Cr329   1.973       .  S
O325       Cr329   2.007       .  S
O325        C326   1.261   1_545  A
C326        C710   1.469       .  S
Cr327       O330   1.755   1_565  S
Cr328       O330   1.778   1_665  S
Cr329       O330   1.763       .  S
O331       Cr349   1.961       .  S
O331        C339   1.259       .  A
O332       Cr349   1.994       .  S
O332        C333   1.260       .  A
C333        O334   1.260       .  A
C333        C743   1.467       .  S
O334       Cr350   1.994       .  S
O335       Cr350   2.038       .  S
O335        C336   1.272       .  A
C336        O337   1.256       .  A
C336        C920   1.487       .  S
O337       Cr351   1.950   1_655  S
O338       Cr351   2.034       .  S
O338        C339   1.273   1_455  A
C339        C693   1.477       .  S
O340       Cr349   2.010   1_455  S
O340        C348   1.263       .  A
O341       Cr349   1.955   1_455  S
O341        C342   1.260   1_455  A
C342        O343   1.274       .  A
C342        C700   1.462       .  S
O343       Cr350   2.036       .  S
O344       Cr350   1.972   1_455  S
O344        C345   1.257       .  A
C345        O346   1.268       .  A
C345        C670   1.468       .  S
O346       Cr351   2.013       .  S
O347       Cr351   1.990       .  S
O347        C348   1.257       .  A
C348        C680   1.473       .  S
Cr349       O352   1.755   1_655  S
Cr350       O352   1.778   1_655  S
Cr351       O352   1.762       .  S
O353       Cr371   1.987       .  S
O353        C361   1.259       .  A
O354       Cr371   1.996       .  S
O354        C355   1.263   1_565  A
C355        O356   1.267   1_545  A
C355        C683   1.469       .  S
O356       Cr372   2.003       .  S
O357       Cr372   2.005       .  S
O357        C358   1.263       .  A
C358        O359   1.263       .  A
C358       C1193   1.482       .  S
O359       Cr373   1.993       .  S
O360       Cr373   1.992       .  S
O360        C361   1.260       .  A
C361        C660   1.466       .  S
O362       Cr371   1.998       .  S
O362        C370   1.264       .  A
O363       Cr371   1.984       .  S
O363        C364   1.259       .  A
C364        O365   1.264       .  A
C364        C713   1.481       .  S
O365       Cr372   2.015       .  S
O366       Cr372   2.003       .  S
O366        C367   1.269       .  A
C367        O368   1.263       .  A
C367        C650   1.466       .  S
O368       Cr373   1.979       .  S
O369       Cr373   1.988       .  S
O369        C370   1.260       .  A
C370        C800   1.471       .  S
Cr371       O374   1.765       .  S
Cr372       O374   1.779       .  S
Cr373       O374   1.772       .  S
O375       Cr393   1.968       .  S
O375        C383   1.258       .  A
O376       Cr393   1.992       .  S
O376        C377   1.262   1_565  A
C377        O378   1.260       .  A
C377        C690   1.463       .  S
O378       Cr394   1.989   1_545  S
O379       Cr394   2.045       .  S
O379        C380   1.272       .  A
C380        O381   1.252       .  A
C380       C1023   1.469       .  S
O381       Cr395   1.945       .  S
O382       Cr395   2.032       .  S
O382        C383   1.270       .  A
C383        C750   1.482       .  S
O384       Cr393   2.011       .  S
O384        C392   1.265       .  A
O385       Cr393   1.948       .  S
O385        C386   1.258       .  A
C386        O387   1.276       .  A
C386        C663   1.474   1_655  S
O387       Cr394   2.043       .  S
O388       Cr394   1.975       .  S
O388        C389   1.259       .  A
C389        O390   1.268       .  A
C389        C813   1.470       .  S
O390       Cr395   2.014       .  S
O391       Cr395   1.977       .  S
O391        C392   1.255       .  A
C392        C773   1.464       .  S
Cr393       O396   1.750       .  S
Cr394       O396   1.779       .  S
Cr395       O396   1.756       .  S
O397       Cr415   1.977       .  S
O397        C405   1.259       .  A
O398       Cr415   1.992       .  S
O398        C399   1.263       .  A
C399        O400   1.265       .  A
C399        C613   1.464       .  S
O400       Cr416   1.997       .  S
O401       Cr416   1.996       .  S
O401        C402   1.264       .  A
C402        O403   1.267       .  A
C402        C653   1.485       .  S
O403       Cr417   1.994       .  S
O404       Cr417   1.995       .  S
O404        C405   1.259       .  A
C405        C620   1.462       .  S
O406       Cr415   1.985       .  S
O406        C414   1.261       .  A
O407       Cr415   1.976       .  S
O407        C408   1.256       .  A
C408        O409   1.264       .  A
C408        C640   1.477       .  S
O409       Cr416   2.016       .  S
O410       Cr416   2.011       .  S
O410        C411   1.270       .  A
C411        O412   1.261       .  A
C411       C1203   1.470       .  S
O412       Cr417   1.973       .  S
O413       Cr417   2.002       .  S
O413        C414   1.264       .  A
C414        C630   1.470       .  S
Cr415       O418   1.761       .  S
Cr416       O418   1.777       .  S
Cr417       O418   1.770       .  S
O419       Cr437   1.953       .  S
O419        C427   1.257       .  A
O420       Cr437   1.999       .  S
O420        C421   1.264       .  A
C421        O422   1.259       .  A
C421        C600   1.459       .  S
O422       Cr438   1.985       .  S
O423       Cr438   2.021       .  S
O423        C424   1.267       .  A
C424        O425   1.255       .  A
C424        C870   1.482       .  S
O425       Cr439   1.960       .  S
O426       Cr439   2.039       .  S
O426        C427   1.274       .  A
C427        C593   1.488       .  S
O428       Cr437   2.004       .  S
O428        C436   1.262       .  A
O429       Cr437   1.956       .  S
O429        C430   1.257       .  A
C430        O431   1.272       .  A
C430        C580   1.467       .  S
O431       Cr438   2.038       .  S
O432       Cr438   1.963       .  S
O432        C433   1.259       .  A
C433        O434   1.273       .  A
C433       C1140   1.468       .  S
O434       Cr439   2.018       .  S
O435       Cr439   1.977       .  S
O435        C436   1.254       .  A
C436        C610   1.465       .  S
Cr437       O440   1.752       .  S
Cr438       O440   1.777       .  S
Cr439       O440   1.759       .  S
O441       Cr459   2.003       .  S
O441        C449   1.263       .  A
O442       Cr459   1.957       .  S
O442        C443   1.257       .  A
C443        O444   1.273       .  A
C443        C560   1.465       .  S
O444       Cr460   2.041       .  S
O445       Cr460   1.980       .  S
O445        C446   1.260       .  A
C446        O447   1.267       .  A
C446        C823   1.467       .  S
O447       Cr461   2.009       .  S
O448       Cr461   1.976       .  S
O448        C449   1.254       .  A
C449        C583   1.462       .  S
O450       Cr459   1.963       .  S
O450        C458   1.258       .  A
O451       Cr459   1.993       .  S
O451        C452   1.262       .  A
C452        O453   1.264       .  A
C452        C573   1.470       .  S
O453       Cr460   2.001       .  S
O454       Cr460   2.042       .  S
O454        C455   1.272       .  A
C455        O456   1.253       .  A
C455        C763   1.472       .  S
O456       Cr461   1.959       .  S
O457       Cr461   2.030       .  S
O457        C458   1.270       .  A
C458        C643   1.477       .  S
Cr459       O462   1.753       .  S
Cr460       O462   1.780       .  S
Cr461       O462   1.764       .  S
O463       Cr481   1.979       .  S
O463        C471   1.260       .  A
O464       Cr481   1.990       .  S
O464        C465   1.260       .  A
C465        O466   1.260       .  A
C465        C550   1.471       .  S
O466       Cr482   1.992       .  S
O467       Cr482   2.034       .  S
O467        C468   1.275       .  A
C468        O469   1.257       .  A
C468       C1073   1.477       .  S
O469       Cr483   1.952       .  S
O470       Cr483   2.006       .  S
O470        C471   1.265       .  A
C471        C603   1.476       .  S
O472       Cr481   2.001       .  S
O472        C480   1.265       .  A
O473       Cr481   1.947       .  S
O473        C474   1.256       .  A
C474        O475   1.273       .  A
C474        C540   1.467       .  S
O475       Cr482   2.036       .  S
O476       Cr482   1.983       .  S
O476        C477   1.258       .  A
C477        O478   1.261       .  A
C477        C723   1.466       .  S
O478       Cr483   1.996       .  S
O479       Cr483   1.988       .  S
O479        C480   1.261       .  A
C480        C563   1.473       .  S
Cr481       O484   1.758       .  S
Cr482       O484   1.781       .  S
Cr483       O484   1.769       .  S
O485       Cr503   1.986       .  S
O485        C493   1.258       .  A
O486       Cr503   1.971       .  S
O486        C487   1.262       .  A
C487        O488   1.269       .  A
C487        C590   1.485       .  S
O488       Cr504   2.022       .  S
O489       Cr504   2.002       .  S
O489        C490   1.267       .  A
C490        O491   1.262       .  A
C490        C673   1.465       .  S
O491       Cr505   1.983       .  S
O492       Cr505   2.007       .  S
O492        C493   1.261       .  A
C493        C553   1.471       .  S
O494       Cr503   1.973       .  S
O494        C502   1.260       .  A
O495       Cr503   1.970       .  S
O495        C496   1.257       .  A
C496        O497   1.265       .  A
C496        C623   1.470       .  S
O497       Cr504   2.013       .  S
O498       Cr504   2.003       .  S
O498        C499   1.266       .  A
C499        O500   1.267       .  A
C499        C913   1.486       .  S
O500       Cr505   1.991       .  S
O501       Cr505   2.023       .  S
O501        C502   1.267       .  A
C502        C530   1.476       .  S
Cr503       O506   1.756       .  S
Cr504       O506   1.777       .  S
Cr505       O506   1.767       .  S
O507       Cr525   1.984       .  S
O507        C515   1.260       .  A
O508       Cr525   1.988       .  S
O508        C509   1.260       .  A
C509        O510   1.265       .  A
C509        C533   1.469       .  S
O510       Cr526   2.006       .  S
O511       Cr526   2.000       .  S
O511        C512   1.262       .  A
C512        O513   1.264       .  A
C512       C1033   1.480       .  S
O513       Cr527   1.995       .  S
O514       Cr527   2.000       .  S
O514        C515   1.263       .  A
C515        C543   1.473       .  S
O516       Cr525   1.992       .  S
O516        C524   1.263       .  A
O517       Cr525   1.977       .  S
O517        C518   1.260       .  A
C518        O519   1.266       .  A
C518        C633   1.481       .  S
O519       Cr526   2.021       .  S
O520       Cr526   2.001       .  S
O520        C521   1.268       .  A
C521        O522   1.263       .  A
C521        C960   1.467       .  S
O522       Cr527   1.980       .  S
O523       Cr527   1.996       .  S
O523        C524   1.262       .  A
C524        C570   1.475       .  S
Cr525       O528   1.762       .  S
Cr526       O528   1.777       .  S
Cr527       O528   1.770       .  S
C529        C530   1.406       .  A
C529        C534   1.404       .  A
C529        H536   1.083       .  S
C530        C531   1.405       .  A
C531        C532   1.396       .  A
C531        F538   1.358       .  S
C532        C533   1.402       .  A
C532        H537   1.083       .  S
C533        C534   1.406       .  A
C534        F535   1.358       .  S
C539        C540   1.403       .  A
C539        C544   1.394       .  A
C539        H546   1.084       .  S
C540        C541   1.404       .  A
C541        C542   1.402       .  A
C541        F548   1.357       .  S
C542        C543   1.405       .  A
C542        H547   1.083       .  S
C543        C544   1.405       .  A
C544        F545   1.358       .  S
C549        C550   1.406       .  A
C549        C554   1.403       .  A
C549        H556   1.083       .  S
C550        C551   1.403       .  A
C551        C552   1.399       .  A
C551        F558   1.358       .  S
C552        C553   1.405       .  A
C552        H557   1.083       .  S
C553        C554   1.404       .  A
C554        F555   1.357       .  S
C559        C560   1.400       .  A
C559        C564   1.391       .  A
C559        H566   1.084       .  S
C560        C561   1.405       .  A
C561        C562   1.406       .  A
C561        F568   1.357       .  S
C562        C563   1.406       .  A
C562        H567   1.083       .  S
C563        C564   1.405       .  A
C564        F565   1.357       .  S
C569        C570   1.404       .  A
C569        C574   1.406       .  A
C569        H576   1.083       .  S
C570        C571   1.405       .  A
C571        C572   1.396       .  A
C571        F578   1.358       .  S
C572        C573   1.401       .  A
C572        H577   1.084       .  S
C573        C574   1.407       .  A
C574        F575   1.357       .  S
C579        C580   1.404       .  A
C579        C584   1.395       .  A
C579        H586   1.084       .  S
C580        C581   1.406       .  A
C581        C582   1.399       .  A
C581        F588   1.357       .  S
C582        C583   1.401       .  A
C582        H587   1.084       .  S
C583        C584   1.401       .  A
C584        F585   1.357       .  S
C589        C590   1.401       .  A
C589        C594   1.392       .  A
C589        H596   1.084       .  S
C590        C591   1.413       .  A
C591        C592   1.405       .  A
C591        F598   1.357       .  S
C592        C593   1.405       .  A
C592        H597   1.083       .  S
C593        C594   1.413       .  A
C594        F595   1.356       .  S
C599        C600   1.398       .  A
C599        C604   1.394       .  A
C599        H606   1.083       .  S
C600        C601   1.401       .  A
C601        C602   1.399       .  A
C601        F608   1.357       .  S
C602        C603   1.406       .  A
C602        H607   1.083       .  S
C603        C604   1.409       .  A
C604        F605   1.358       .  S
C609        C610   1.401       .  A
C609        C614   1.399       .  A
C609        H616   1.084       .  S
C610        C611   1.403       .  A
C611        C612   1.399       .  A
C611        F618   1.358       .  S
C612        C613   1.403       .  A
C612        H617   1.084       .  S
C613        C614   1.404       .  A
C614        F615   1.357       .  S
C619        C620   1.407       .  A
C619        C624   1.409       .  A
C619        H626   1.083       .  S
C620        C621   1.397       .  A
C621        C622   1.384       .  A
C621        F628   1.359       .  S
C622        C623   1.404       .  A
C622        H627   1.084       .  S
C623        C624   1.406       .  A
C624        F625   1.357       .  S
C629        C630   1.401       .  A
C629        C634   1.403       .  A
C629        H636   1.083       .  S
C630        C631   1.404       .  A
C631        C632   1.396       .  A
C631        F638   1.355       .  S
C632        C633   1.402       .  A
C632        H637   1.083       .  S
C633        C634   1.412       .  A
C634        F635   1.357       .  S
C639        C640   1.406       .  A
C639        C644   1.401       .  A
C639        H646   1.083       .  S
C640        C641   1.403       .  A
C641        C642   1.396       .  A
C641        F648   1.355       .  S
C642        C643   1.405       .  A
C642        H647   1.083       .  S
C643        C644   1.406       .  A
C644        F645   1.357       .  S
C649        C650   1.398       .  A
C649        C654   1.400       .  A
C649        H656   1.083       .  S
C650        C651   1.407       .  A
C651        C652   1.396       .  A
C651        F658   1.357       .  S
C652        C653   1.402       .  A
C652        H657   1.083       .  S
C653        C654   1.416       .  A
C654        F655   1.357       .  S
C659        C660   1.398       .  A
C659        C664   1.391       .  A
C659        H666   1.084       .  S
C660        C661   1.404       .  A
C661        C662   1.403       .  A
C661        F668   1.356       .  S
C662        C663   1.406       .  A
C662        H667   1.082       .  S
C663        C664   1.409       .  A
C664        F665   1.358       .  S
C669        C670   1.402       .  A
C669        C674   1.398       .  A
C669        H676   1.084       .  S
C670        C671   1.402       .  A
C671        C672   1.401       .  A
C671        F678   1.357       .  S
C672        C673   1.405       .  A
C672        H677   1.084       .  S
C673        C674   1.404       .  A
C674        F675   1.358       .  S
C679        C680   1.404       .  A
C679        C684   1.405       .  A
C679        H686   1.083       .  S
C680        C681   1.404       .  A
C681        C682   1.397       .  A
C681        F688   1.358       .  S
C682        C683   1.402       .  A
C682        H687   1.082       .  S
C683        C684   1.406       .  A
C684        F685   1.357       .  S
C689        C690   1.399       .  A
C689        C694   1.396       .  A
C689        H696   1.084       .  S
C690        C691   1.406       .  A
C691        C692   1.400   1_655  A
C691        F698   1.357   1_655  S
C692        C693   1.403   1_455  A
C692        H697   1.083       .  S
C693        C694   1.410       .  A
C694        F695   1.357       .  S
C699        C700   1.400   1_455  A
C699        C704   1.396       .  A
C699        H706   1.083       .  S
C700        C701   1.403       .  A
C701        C702   1.396       .  A
C701        F708   1.357       .  S
C702        C703   1.405   1_655  A
C702        H707   1.083       .  S
C703        C704   1.408       .  A
C704        F705   1.357       .  S
C709        C710   1.405       .  A
C709        C714   1.401       .  A
C709        H716   1.083       .  S
C710        C711   1.403   1_565  A
C711        C712   1.401   1_545  A
C711        F718   1.358       .  S
C712        C713   1.408       .  A
C712        H717   1.083   1_565  S
C713        C714   1.406       .  A
C714        F715   1.357       .  S
C719        C720   1.409       .  A
C719        C724   1.395       .  A
C719        H726   1.083       .  S
C720        C721   1.409       .  A
C721        C722   1.403       .  A
C721        F728   1.357       .  S
C722        C723   1.404       .  A
C722        H727   1.084       .  S
C723        C724   1.399       .  A
C724        F725   1.358       .  S
C729        C730   1.402       .  A
C729        C734   1.380       .  A
C729        H736   1.078       .  S
C730        C731   1.408       .  A
C731        C732   1.417       .  A
C731        F738   1.356   1_545  S
C732        C733   1.414       .  A
C732        H737   1.083       .  S
C733        C734   1.406       .  A
C734        F735   1.359       .  S
C739        C740   1.405       .  A
C739        C744   1.401       .  A
C739        H746   1.083       .  S
C740        C741   1.411       .  A
C741        C742   1.398       .  A
C741        F748   1.357       .  S
C742        C743   1.399       .  A
C742        H747   1.083       .  S
C743        C744   1.405       .  A
C744        F745   1.357       .  S
C749        C750   1.405       .  A
C749        C754   1.401       .  A
C749        H756   1.083       .  S
C750        C751   1.409   1_565  A
C751        C752   1.398       .  A
C751        F758   1.358       .  S
C752        C753   1.401   1_545  A
C752        H757   1.083       .  S
C753        C754   1.406       .  A
C754        F755   1.358       .  S
C759        C760   1.402       .  A
C759        C764   1.388       .  A
C759        H766   1.084       .  S
C760        C761   1.413       .  A
C761        C762   1.410       .  A
C761        F768   1.357       .  S
C762        C763   1.405       .  A
C762        H767   1.083       .  S
C763        C764   1.404       .  A
C764        F765   1.355       .  S
C769        C770   1.406       .  A
C769        C774   1.392       .  A
C769        H776   1.084       .  S
C770        C771   1.405       .  A
C771        C772   1.403       .  A
C771        F778   1.357       .  S
C772        C773   1.405       .  A
C772        H777   1.083       .  S
C773        C774   1.399       .  A
C774        F775   1.358       .  S
C779        C780   1.399       .  A
C779        C784   1.390       .  A
C779        H786   1.084       .  S
C780        C781   1.405       .  A
C781        C782   1.405       .  A
C781        F788   1.357       .  S
C782        C783   1.405       .  A
C782        H787   1.083       .  S
C783        C784   1.406       .  A
C784        F785   1.358       .  S
C789        C790   1.405       .  A
C789        C794   1.397       .  A
C789        H796   1.083       .  S
C790        C791   1.407   1_655  A
C791        C792   1.393       .  A
C791        F798   1.355       .  S
C792        C793   1.403   1_455  A
C792        H797   1.084       .  S
C793        C794   1.409       .  A
C794        F795   1.358       .  S
C799        C800   1.403       .  A
C799        C804   1.402       .  A
C799        H806   1.084       .  S
C800        C801   1.403       .  A
C801        C802   1.400       .  A
C801        F808   1.357       .  S
C802        C803   1.404       .  A
C802        H807   1.084       .  S
C803        C804   1.404       .  A
C804        F805   1.356       .  S
C809        C810   1.406       .  A
C809        C814   1.394       .  A
C809        H816   1.084       .  S
C810        C811   1.405       .  A
C811        C812   1.405       .  A
C811        F818   1.357       .  S
C812        C813   1.406       .  A
C812        H817   1.083       .  S
C813        C814   1.400       .  A
C814        F815   1.358       .  S
C819        C820   1.403       .  A
C819        C824   1.399       .  A
C819        H826   1.084       .  S
C820        C821   1.405       .  A
C821        C822   1.400       .  A
C821        F828   1.357       .  S
C822        C823   1.401       .  A
C822        H827   1.083       .  S
C823        C824   1.404       .  A
C824        F825   1.358       .  S
C829        C830   1.400       .  A
C829        C834   1.396       .  A
C829        H836   1.083       .  S
C830        C831   1.412       .  A
C831        C832   1.400       .  A
C831        F838   1.358       .  S
C832        C833   1.403       .  A
C832        H837   1.083       .  S
C833        C834   1.414       .  A
C834        F835   1.358       .  S
C839        C840   1.409       .  A
C839        C844   1.414       .  A
C839        H846   1.083       .  S
C840        C841   1.396       .  A
C841        C842   1.385       .  A
C841        F848   1.359       .  S
C842        C843   1.406       .  A
C842        H847   1.081       .  S
C843        C844   1.408       .  A
C844        F845   1.356       .  S
C849        C850   1.400       .  A
C849        C854   1.396       .  A
C849        H856   1.083       .  S
C850        C851   1.412       .  A
C851        C852   1.401       .  A
C851        F858   1.358       .  S
C852        C853   1.403       .  A
C852        H857   1.083       .  S
C853        C854   1.412       .  A
C854        F855   1.358       .  S
C859        C860   1.405       .  A
C859        C864   1.399       .  A
C859        H866   1.084   1_655  S
C860        C861   1.406       .  A
C861        C862   1.394       .  A
C861        F868   1.357       .  S
C862        C863   1.402       .  A
C862        H867   1.084       .  S
C863        C864   1.406       .  A
C864        F865   1.357   1_655  S
C869        C870   1.409       .  A
C869        C874   1.393       .  A
C869        H876   1.083       .  S
C870        C871   1.410       .  A
C871        C872   1.401       .  A
C871        F878   1.357       .  S
C872        C873   1.402       .  A
C872        H877   1.083       .  S
C873        C874   1.398       .  A
C874        F875   1.358       .  S
C879        C880   1.403       .  A
C879        C884   1.402       .  A
C879        H886   1.083       .  S
C880        C881   1.404       .  A
C881        C882   1.395       .  A
C881        F888   1.358       .  S
C882        C883   1.402       .  A
C882        H887   1.084       .  S
C883        C884   1.404       .  A
C884        F885   1.357       .  S
C889        C890   1.402       .  A
C889        C894   1.398       .  A
C889        H896   1.084       .  S
C890        C891   1.402       .  A
C891        C892   1.399       .  A
C891        F898   1.358       .  S
C892        C893   1.404       .  A
C892        H897   1.083       .  S
C893        C894   1.404       .  A
C894        F895   1.358       .  S
C899        C900   1.409       .  A
C899        C904   1.399       .  A
C899        H906   1.085       .  S
C900        C901   1.403   1_554  A
C901        C902   1.392   1_556  A
C901        F908   1.357       .  S
C902        C903   1.404       .  A
C902        H907   1.085   1_554  S
C903        C904   1.405       .  A
C904        F905   1.358       .  S
C909        C910   1.400       .  A
C909        C914   1.403       .  A
C909        H916   1.083       .  S
C910        C911   1.407       .  A
C911        C912   1.396       .  A
C911        F918   1.358       .  S
C912        C913   1.402       .  A
C912        H917   1.083       .  S
C913        C914   1.415       .  A
C914        F915   1.357       .  S
C919        C920   1.407       .  A
C919        C924   1.388   1_655  A
C919        H926   1.083   1_655  S
C920        C921   1.408       .  A
C921        C922   1.408       .  A
C921        F928   1.357       .  S
C922        C923   1.411       .  A
C922        H927   1.083       .  S
C923        C924   1.407   1_655  A
C924        F925   1.358       .  S
C929        C930   1.403       .  A
C929        C934   1.401       .  A
C929        H936   1.084       .  S
C930        C931   1.402   1_655  A
C931        C932   1.395       .  A
C931        F938   1.358       .  S
C932        C933   1.407   1_455  A
C932        H937   1.083       .  S
C933        C934   1.408       .  A
C934        F935   1.357       .  S
C939        C940   1.402       .  A
C939        C944   1.398       .  A
C939        H946   1.084       .  S
C940        C941   1.403       .  A
C941        C942   1.398       .  A
C941        F948   1.358       .  S
C942        C943   1.403       .  A
C942        H947   1.084       .  S
C943        C944   1.402       .  A
C944        F945   1.355       .  S
C949        C950   1.410       .  A
C949        C954   1.405       .  A
C949        H956   1.083       .  S
C950        C951   1.406       .  A
C951        C952   1.399       .  A
C951        F958   1.358   1_655  S
C952        C953   1.404       .  A
C952        H957   1.083   1_655  S
C953        C954   1.403       .  A
C954        F955   1.357       .  S
C959        C960   1.405       .  A
C959        C964   1.397       .  A
C959        H966   1.084       .  S
C960        C961   1.401       .  A
C961        C962   1.400       .  A
C961        F968   1.358       .  S
C962        C963   1.411       .  A
C962        H967   1.083       .  S
C963        C964   1.406       .  A
C964        F965   1.357       .  S
C969        C970   1.395       .  A
C969        C974   1.381   1_556  A
C969        H976   1.085       .  S
C970        C971   1.410       .  A
C971        C972   1.414   1_556  A
C971        F978   1.357       .  S
C972        C973   1.408       .  A
C972        H977   1.083       .  S
C973        C974   1.412       .  A
C974        F975   1.359       .  S
C979        C980   1.408       .  A
C979        C984   1.406       .  A
C979        H986   1.083       .  S
C980        C981   1.405       .  A
C981        C982   1.394       .  A
C981        F988   1.358       .  S
C982        C983   1.405       .  A
C982        H987   1.084       .  S
C983        C984   1.406       .  A
C984        F985   1.357       .  S
C989        C990   1.405       .  A
C989        C994   1.402   1_554  A
C989        H996   1.084   1_554  S
C990        C991   1.402       .  A
C991        C992   1.397       .  A
C991        F998   1.357       .  S
C992        C993   1.404       .  A
C992        H997   1.084       .  S
C993        C994   1.403   1_554  A
C994        F995   1.357       .  S
C999       C1000   1.413       .  A
C999       C1004   1.406       .  A
C999       H1006   1.083       .  S
C1000      C1001   1.409       .  A
C1001      C1002   1.396       .  A
C1001      F1008   1.358       .  S
C1002      C1003   1.404       .  A
C1002      H1007   1.083       .  S
C1003      C1004   1.402       .  A
C1004      F1005   1.357       .  S
C1009      C1010   1.401       .  A
C1009      C1014   1.397       .  A
C1009      H1016   1.083       .  S
C1010      C1011   1.415       .  A
C1011      C1012   1.399       .  A
C1011      F1018   1.358       .  S
C1012      C1013   1.399       .  A
C1012      H1017   1.083       .  S
C1013      C1014   1.413       .  A
C1014      F1015   1.358       .  S
C1019      C1020   1.412       .  A
C1019      C1024   1.408       .  A
C1019      H1026   1.083       .  S
C1020      C1021   1.403       .  A
C1021      C1022   1.383       .  A
C1021      F1028   1.358       .  S
C1022      C1023   1.403       .  A
C1022      H1027   1.084       .  S
C1023      C1024   1.403       .  A
C1024      F1025   1.357   1_565  S
C1029      C1030   1.403       .  A
C1029      C1034   1.401       .  A
C1029      H1036   1.083       .  S
C1030      C1031   1.411       .  A
C1031      C1032   1.399       .  A
C1031      F1038   1.358       .  S
C1032      C1033   1.401       .  A
C1032      H1037   1.083       .  S
C1033      C1034   1.411       .  A
C1034      F1035   1.358       .  S
C1039      C1040   1.407       .  A
C1039      C1044   1.407       .  A
C1039      H1046   1.083       .  S
C1040      C1041   1.401       .  A
C1041      C1042   1.395       .  A
C1041      F1048   1.358       .  S
C1042      C1043   1.405       .  A
C1042      H1047   1.084       .  S
C1043      C1044   1.405       .  A
C1044      F1045   1.357       .  S
C1049      C1050   1.406   1_554  A
C1049      C1054   1.407       .  A
C1049      H1056   1.083       .  S
C1050      C1051   1.400       .  A
C1051      C1052   1.392       .  A
C1051      F1058   1.357       .  S
C1052      C1053   1.407       .  A
C1052      H1057   1.083       .  S
C1053      C1054   1.408   1_556  A
C1054      F1055   1.357       .  S
C1059      C1060   1.406       .  A
C1059      C1064   1.393       .  A
C1059      H1066   1.084       .  S
C1060      C1061   1.404       .  A
C1061      C1062   1.404       .  A
C1061      F1068   1.357       .  S
C1062      C1063   1.407       .  A
C1062      H1067   1.083       .  S
C1063      C1064   1.400       .  A
C1064      F1065   1.358       .  S
C1069      C1070   1.400       .  A
C1069      C1074   1.396       .  A
C1069      H1076   1.083       .  S
C1070      C1071   1.411       .  A
C1071      C1072   1.398       .  A
C1071      F1078   1.358       .  S
C1072      C1073   1.402       .  A
C1072      H1077   1.083       .  S
C1073      C1074   1.411       .  A
C1074      F1075   1.358       .  S
C1079      C1080   1.400       .  A
C1079      C1084   1.393       .  A
C1079      H1086   1.084       .  S
C1080      C1081   1.404       .  A
C1081      C1082   1.402       .  A
C1081      F1088   1.356       .  S
C1082      C1083   1.404       .  A
C1082      H1087   1.083       .  S
C1083      C1084   1.407       .  A
C1084      F1085   1.358       .  S
C1089      C1090   1.402       .  A
C1089      C1094   1.396       .  A
C1089      H1096   1.084       .  S
C1090      C1091   1.404   1_565  A
C1091      C1092   1.402       .  A
C1091      F1098   1.357       .  S
C1092      C1093   1.403   1_545  A
C1092      H1097   1.083       .  S
C1093      C1094   1.403       .  A
C1094      F1095   1.358       .  S
C1099      C1100   1.405       .  A
C1099      C1104   1.408       .  A
C1099      H1106   1.083       .  S
C1100      C1101   1.405       .  A
C1101      C1102   1.391       .  A
C1101      F1108   1.357       .  S
C1102      C1103   1.399       .  A
C1102      H1107   1.084       .  S
C1103      C1104   1.407       .  A
C1104      F1105   1.357       .  S
C1109      C1110   1.402       .  A
C1109      C1114   1.395       .  A
C1109      H1116   1.083       .  S
C1110      C1111   1.415       .  A
C1111      C1112   1.402       .  A
C1111      F1118   1.357       .  S
C1112      C1113   1.399       .  A
C1112      H1117   1.083       .  S
C1113      C1114   1.406       .  A
C1114      F1115   1.357       .  S
C1119      C1120   1.406       .  A
C1119      C1124   1.402       .  A
C1119      H1126   1.083       .  S
C1120      C1121   1.405   1_545  A
C1121      C1122   1.397       .  A
C1121      F1128   1.357       .  S
C1122      C1123   1.402   1_565  A
C1122      H1127   1.084       .  S
C1123      C1124   1.405       .  A
C1124      F1125   1.357       .  S
C1129      C1130   1.402       .  A
C1129      C1134   1.402       .  A
C1129      H1136   1.083   1_554  S
C1130      C1131   1.407       .  A
C1131      C1132   1.404       .  A
C1131      F1138   1.357       .  S
C1132      C1133   1.403       .  A
C1132      H1137   1.083       .  S
C1133      C1134   1.407       .  A
C1134      F1135   1.357   1_554  S
C1139      C1140   1.397       .  A
C1139      C1144   1.392       .  A
C1139      H1146   1.084       .  S
C1140      C1141   1.409       .  A
C1141      C1142   1.403       .  A
C1141      F1148   1.357       .  S
C1142      C1143   1.402       .  A
C1142      H1147   1.083       .  S
C1143      C1144   1.408       .  A
C1144      F1145   1.358       .  S
C1149      C1150   1.400       .  A
C1149      C1154   1.394       .  A
C1149      H1156   1.083       .  S
C1150      C1151   1.411       .  A
C1151      C1152   1.398       .  A
C1151      F1158   1.358       .  S
C1152      C1153   1.402       .  A
C1152      H1157   1.083       .  S
C1153      C1154   1.411       .  A
C1154      F1155   1.358       .  S
C1159      C1160   1.404       .  A
C1159      C1164   1.397       .  A
C1159      H1166   1.082       .  S
C1160      C1161   1.407       .  A
C1161      C1162   1.397       .  A
C1161      F1168   1.358       .  S
C1162      C1163   1.401       .  A
C1162      H1167   1.083       .  S
C1163      C1164   1.402       .  A
C1164      F1165   1.357       .  S
C1169      C1170   1.410       .  A
C1169      C1174   1.401       .  A
C1169      H1176   1.083       .  S
C1170      C1171   1.406       .  A
C1171      C1172   1.397       .  A
C1171      F1178   1.358       .  S
C1172      C1173   1.404       .  A
C1172      H1177   1.082       .  S
C1173      C1174   1.400       .  A
C1174      F1175   1.357       .  S
C1179      C1180   1.400       .  A
C1179      C1184   1.379       .  A
C1179      H1186   1.083       .  S
C1180      C1181   1.409       .  A
C1181      C1182   1.407       .  A
C1181      F1188   1.357       .  S
C1182      C1183   1.408       .  A
C1182      H1187   1.083       .  S
C1183      C1184   1.411       .  A
C1184      F1185   1.359       .  S
C1189      C1190   1.410       .  A
C1189      C1194   1.399       .  A
C1189      H1196   1.083       .  S
C1190      C1191   1.407       .  A
C1191      C1192   1.401       .  A
C1191      F1198   1.358       .  S
C1192      C1193   1.408       .  A
C1192      H1197   1.083       .  S
C1193      C1194   1.403       .  A
C1194      F1195   1.357       .  S
C1199      C1200   1.409       .  A
C1199      C1204   1.404       .  A
C1199      H1206   1.083       .  S
C1200      C1201   1.399       .  A
C1201      C1202   1.392       .  A
C1201      F1208   1.358       .  S
C1202      C1203   1.407       .  A
C1202      H1207   1.084       .  S
C1203      C1204   1.402       .  A
C1204      F1205   1.357       .  S
C1209      C1210   1.404       .  A
C1209      C1214   1.403       .  A
C1209      H1216   1.083       .  S
C1210      C1211   1.409       .  A
C1211      C1212   1.394       .  A
C1211      F1218   1.358       .  S
C1212      C1213   1.398       .  A
C1212      H1217   1.084       .  S
C1213      C1214   1.405       .  A
C1214      F1215   1.357       .  S
C1219      C1220   1.402       .  A
C1219      C1224   1.391       .  A
C1219      H1226   1.082       .  S
C1220      C1221   1.405       .  A
C1221      C1222   1.406       .  A
C1221      F1228   1.357       .  S
C1222      C1223   1.405       .  A
C1222      H1227   1.083       .  S
C1223      C1224   1.401       .  A
C1224      F1225   1.358       .  S
C1229      C1230   1.408       .  A
C1229      C1234   1.409       .  A
C1229      H1236   1.083       .  S
C1230      C1231   1.413   1_565  A
C1231      C1232   1.386       .  A
C1231      F1238   1.357       .  S
C1232      C1233   1.402   1_545  A
C1232      H1237   1.083       .  S
C1233      C1234   1.411       .  A
C1234      F1235   1.357       .  S
C1239      C1240   1.401       .  A
C1239      C1244   1.400       .  A
C1239      H1246   1.083       .  S
C1240      C1241   1.402       .  A
C1241      C1242   1.398       .  A
C1241      F1248   1.357       .  S
C1242      C1243   1.407       .  A
C1242      H1247   1.084       .  S
C1243      C1244   1.410       .  A
C1244      F1245   1.357       .  S
