geometry optimzed in LAMMPS
_audit_creation_date              2020-12-01 
_audit_creation_method            'lammps2cif' 
_symmetry_space_group_name_H-M    'P1' 
_symmetry_Int_Tables_number       1 
_symmetry_cell_setting            triclinic 
loop_ 
_symmetry_equiv_pos_as_xyz 
  x,y,z 
_cell_length_a                    35.98277844 
_cell_length_b                    36.13853037068049 
_cell_length_c                    36.031230989927444 
_cell_angle_alpha                 89.37242044084108 
_cell_angle_beta                  89.03224733837413 
_cell_angle_gamma                 90.06219381238066 
loop_ 
_atom_site_label 
_atom_site_type_symbol 
_atom_site_fract_x 
_atom_site_fract_y 
_atom_site_fract_z 
_atom_site_charge 
C1          C  0.12226460  0.84597796  0.53259404     0.01900
C2          C  0.10552922  0.83780151  0.49813814     0.01900
C3          C  0.12403950  0.84995759  0.46483332     0.01900
C4          C  0.15412093  0.87629324  0.46629377     0.01900
C5          C  0.16137560  0.89351909  0.50108008     0.01900
C6          C  0.15100874  0.87346314  0.53372359     0.01900
C7          C  0.14720358  0.07463040  0.46437364     0.01900
C8          C  0.15990703  0.05685409  0.49735118     0.01900
C9          C  0.15092738  0.07399927  0.53184916     0.01900
C10         C  0.12206132  0.10173748  0.53365122     0.01900
C11         C  0.10115725  0.10987795  0.50118577     0.01900
C12         C  0.11852628  0.10205885  0.46639329     0.01900
C13         C  0.88876158  0.08411453  0.53108283     0.01900
C14         C  0.91600698  0.11312027  0.53141127     0.01900
C15         C  0.93654296  0.12125551  0.49827383     0.01900
C16         C  0.91906680  0.11256540  0.46426082     0.01900
C17         C  0.88911044  0.08639372  0.46357942     0.01900
C18         C  0.88029416  0.06636484  0.49696941     0.01900
C19         C  0.90026275  0.88754041  0.52851430     0.01900
C20         C  0.92248461  0.85645165  0.53515090     0.01900
C21         C  0.94303102  0.84184544  0.50376833     0.01900
C22         C  0.92892956  0.84972347  0.46744579     0.01900
C23         C  0.90318035  0.87980929  0.46268811     0.01900
C24         C  0.89529168  0.90346710  0.49291903     0.01900
C25         C  0.48463099  0.09794033  0.08936040     0.01900
C26         C  0.51695997  0.10813317  0.06819884     0.01900
C27         C  0.55244604  0.10058569  0.08430135     0.01900
C28         C  0.55537015  0.07197214  0.11222764     0.01900
C29         C  0.52272063  0.05176561  0.12265981     0.01900
C30         C  0.48756070  0.06852922  0.11636803     0.01900
C31         C  0.49181308  0.11349783  0.88673716     0.01900
C32         C  0.52562038  0.12162453  0.90515753     0.01900
C33         C  0.55908782  0.10989495  0.88722630     0.01900
C34         C  0.55814487  0.07962440  0.86172030     0.01900
C35         C  0.52377782  0.06341463  0.85246442     0.01900
C36         C  0.49141389  0.08485680  0.85948243     0.01900
C37         C  0.48720339  0.86984873  0.13362524     0.01900
C38         C  0.51965775  0.89007333  0.14212343     0.01900
C39         C  0.55418190  0.87309384  0.13374561     0.01900
C40         C  0.55574364  0.84589814  0.10513480     0.01900
C41         C  0.52268439  0.83500661  0.08678361     0.01900
C42         C  0.48854348  0.84206375  0.10562661     0.01900
C43         C  0.48489062  0.87843388  0.87939058     0.01900
C44         C  0.51793443  0.89998318  0.87136168     0.01900
C45         C  0.55356514  0.88270064  0.87852549     0.01900
C46         C  0.55523318  0.85110825  0.90344026     0.01900
C47         C  0.52185854  0.84008933  0.92249537     0.01900
C48         C  0.48750154  0.84656209  0.90403665     0.01900
C49         C  0.11916260  0.43701410  0.88489157     0.01900
C50         C  0.09876720  0.46895486  0.87379561     0.01900
C51         C  0.11768586  0.50360931  0.87523020     0.01900
C52         C  0.14777042  0.50820134  0.90075427     0.01900
C53         C  0.15854908  0.47754626  0.92329963     0.01900
C54         C  0.15117458  0.44152664  0.90838796     0.01900
C55         C  0.15201338  0.51156048  0.10937525     0.01900
C56         C  0.16224357  0.48067658  0.08690756     0.01900
C57         C  0.15087804  0.44501296  0.10074187     0.01900
C58         C  0.12087641  0.44176968  0.12728742     0.01900
C59         C  0.10168575  0.47381529  0.13863373     0.01900
C60         C  0.12175143  0.50775872  0.13592096     0.01900
C61         C  0.91934082  0.51231699  0.12440157     0.01900
C62         C  0.93709840  0.47912539  0.13689927     0.01900
C63         C  0.91919346  0.44511107  0.12852919     0.01900
C64         C  0.89327191  0.44362732  0.09880945     0.01900
C65         C  0.88527262  0.47612097  0.07837442     0.01900
C66         C  0.89053494  0.51042924  0.09695616     0.01900
C67         C  0.91636841  0.51054893  0.86405810     0.01900
C68         C  0.93510418  0.47653344  0.85673836     0.01900
C69         C  0.91531949  0.44369319  0.86588388     0.01900
C70         C  0.88815734  0.44363394  0.89531190     0.01900
C71         C  0.88009395  0.47746391  0.91395347     0.01900
C72         C  0.88984781  0.51116052  0.89459685     0.01900
O73         O  0.23074590  0.90693670  0.69474041    -0.75700
O74         O  0.18123604  0.94594713  0.68984314    -0.54600
C75         C  0.20149571  0.91945147  0.67801151     0.78000
O76         O  0.21578414  0.93022319  0.89399529    -0.60300
O77         O  0.27777108  0.93078938  0.89138612    -0.53300
C78         C  0.24717355  0.91680205  0.90344894     0.70100
O79         O  0.12659057  0.92427774  0.80720349    -0.74800
O80         O  0.13009466  0.93313240  0.74549276    -0.55400
C81         C  0.11766660  0.91551667  0.77428751     0.76100
O82         O  0.32714849  0.90659361  0.78137122    -0.60000
O83         O  0.33260767  0.94094928  0.83388436    -0.53100
C84         C  0.34463903  0.91707057  0.81075609     0.72700
Zr85       Zr  0.26583992  0.92164922  0.75241350     2.54700
O86         O  0.26067138  0.85453778  0.75679422    -0.80600
O87         O  0.31265587  0.91711401  0.70298713    -0.94000
Zr88       Zr  0.18806182  0.92739678  0.83300607     2.64700
O89         O  0.19144639  0.86017846  0.83195718    -0.98900
O90         O  0.14023849  0.91597883  0.88001272    -0.81000
O91         O  0.20127243  0.92513105  0.76839701    -0.84300
O92         O  0.25214213  0.92190836  0.81746787    -2.19100
O93         O  0.33235452  0.04609499  0.78038958    -0.67700
O94         O  0.33397689  0.01064962  0.83262423    -0.52300
C95         C  0.34805350  0.03445083  0.81039820     0.71000
O96         O  0.13831470  0.05347606  0.80117569    -0.60600
O97         O  0.12300467  0.02226839  0.74927482    -0.52600
C98         C  0.11644168  0.04650509  0.77449039     0.72800
O99         O  0.21588734  0.02376756  0.89239903    -0.72000
O100        O  0.27731311  0.02141339  0.89387451    -0.50700
C101        C  0.24649094  0.03568571  0.90501263     0.74200
O102        O  0.24554231  0.04520659  0.68866663    -0.67400
O103        O  0.18622883  0.02279838  0.69182585    -0.54600
C104        C  0.21338010  0.03895667  0.67459602     0.72600
Zr105      Zr  0.27249119  0.03209987  0.75018987     2.77500
O106        O  0.27235868  0.09947919  0.74912761    -0.98100
O107        O  0.32210701  0.02753340  0.70377443    -0.78900
Zr108      Zr  0.19571648  0.03695667  0.82999427     2.70100
O109        O  0.21832726  0.10035195  0.83268467    -0.80200
O110        O  0.14715599  0.06137299  0.86978852    -0.99300
Zr111      Zr  0.17789259  0.98216306  0.74423051     2.21500
Zr112      Zr  0.27871853  0.97715987  0.84203979     2.11100
O113        O  0.25965664  0.03463622  0.81520970    -2.48000
O114        O  0.20773933  0.03686669  0.76525223    -0.80000
O115        O  0.29324005  0.97570679  0.77701526    -0.72200
O116        O  0.16467149  0.98394434  0.80868898    -2.33100
O117        O  0.24282701  0.97808986  0.72765516    -2.29300
O118        O  0.21490250  0.98093950  0.85794723    -0.73900
H119        H  0.26264502  0.90008623  0.82884782     0.78100
H120        H  0.13854541  0.98664958  0.81440608     0.79200
H121        H  0.27260049  0.05508323  0.82620815     0.81400
H122        H  0.24645589  0.97718327  0.70109872     0.79000
H123        H  0.13615202  0.94034603  0.89168845     0.42000
H124        H  0.14472556  0.04318990  0.89043124     0.41000
H125        H  0.21741291  0.10949934  0.80671753     0.40700
H126        H  0.29448023  0.10630262  0.73381220     0.38600
H127        H  0.32850287  0.00089337  0.70352986     0.41700
H128        H  0.30006395  0.92522467  0.68007995     0.36500
H129        H  0.27269737  0.84786178  0.78044796     0.42600
H130        H  0.19507863  0.85429964  0.80537419     0.39100
H131        H  0.25095341  0.10636214  0.73359665     0.44000
H132        H  0.31649076  0.89018831  0.69985882     0.42700
H133        H  0.21552672  0.85403170  0.84334720     0.42800
H134        H  0.15869264  0.08339361  0.88073543     0.43200
O135        O  0.09657437  0.18805325  0.69654695    -0.75700
O136        O  0.05906309  0.13735459  0.69193044    -0.54600
C137        C  0.08515198  0.15859123  0.67977304     0.78000
O138        O  0.09210683  0.16964180  0.88823444    -0.60300
O139        O  0.06412450  0.22533934  0.89793812    -0.53300
C140        C  0.08712296  0.19943174  0.90663945     0.70100
O141        O  0.07328368  0.07848480  0.80922888    -0.74800
O142        O  0.06642441  0.08217232  0.74749851    -0.55400
C143        C  0.08247747  0.06901425  0.77637925     0.76100
O144        O  0.09374596  0.28004877  0.78791497    -0.60000
O145        O  0.06164686  0.28112962  0.84304142    -0.53100
C146        C  0.08464037  0.29500355  0.81948603     0.72700
Zr147      Zr  0.07925055  0.22047065  0.75553896     2.54700
O148        O  0.14647123  0.21757307  0.76142139    -0.80600
O149        O  0.08353642  0.26807325  0.70733077    -0.94000
Zr150      Zr  0.07203362  0.14056539  0.83227682     2.64700
O151        O  0.13567843  0.13823414  0.80880019    -0.98900
O152        O  0.08213755  0.09802526  0.88378903    -0.81000
O153        O  0.07616520  0.15550114  0.76859290    -0.84300
O154        O  0.07713247  0.20472201  0.81984577    -2.19100
O155        O  0.95834209  0.28649314  0.78244895    -0.67700
O156        O  0.98456476  0.28365357  0.83931505    -0.52300
C157        C  0.96634490  0.30054449  0.81434817     0.71000
O158        O  0.94613061  0.09167751  0.80134979    -0.60600
O159        O  0.97873433  0.07741544  0.74886801    -0.52600
C160        C  0.95390780  0.07037478  0.77412249     0.72800
O161        O  0.97575439  0.16585662  0.89485638    -0.72000
O162        O  0.97787110  0.22705008  0.89834478    -0.50700
C163        C  0.96466552  0.19591495  0.90959191     0.74200
O164        O  0.95704341  0.19592496  0.69084155    -0.67400
O165        O  0.97978335  0.13745708  0.69419800    -0.54600
C166        C  0.96344220  0.16342606  0.67687999     0.72600
Zr167      Zr  0.96860469  0.22513014  0.75275452     2.77500
O168        O  0.90099712  0.22304372  0.75526746    -0.98100
O169        O  0.96932189  0.27376703  0.70552325    -0.78900
Zr170      Zr  0.96186595  0.14827094  0.83185764     2.70100
O171        O  0.89833049  0.17082100  0.83622938    -0.80200
O172        O  0.93707186  0.10013964  0.87214774    -0.99300
Zr173      Zr  0.01953212  0.13180208  0.74545908     2.21500
Zr174      Zr  0.02152590  0.22985495  0.84559453     2.11100
O175        O  0.96440397  0.21194178  0.81794885    -2.48000
O176        O  0.96390301  0.16073437  0.76724368    -0.80000
O177        O  0.02406062  0.24643631  0.78089428    -0.72200
O178        O  0.01524263  0.11784424  0.80948358    -2.33100
O179        O  0.02370051  0.19670296  0.72991005    -2.29300
O180        O  0.01797106  0.16622012  0.85923147    -0.73900
H181        H  0.09885387  0.21481148  0.83146636     0.78100
H182        H  0.01192995  0.09182897  0.81485848     0.79200
H183        H  0.94360034  0.22469299  0.82921218     0.81400
H184        H  0.02512703  0.20051931  0.70337893     0.79000
H185        H  0.05883713  0.09908789  0.89876246     0.42000
H186        H  0.95697290  0.09496294  0.89011946     0.41000
H187        H  0.88939538  0.17057996  0.81040502     0.40700
H188        H  0.89377852  0.24264384  0.77296104     0.38600
H189        H  0.99264410  0.28753052  0.70982075     0.41700
H190        H  0.06641791  0.25974242  0.68787724     0.36500
H191        H  0.15583092  0.23930454  0.74712200     0.42600
H192        H  0.14655487  0.16258389  0.81464445     0.39100
H193        H  0.89331838  0.23271885  0.73075832     0.44000
H194        H  0.10868268  0.26502042  0.69620216     0.42700
H195        H  0.14821032  0.12027944  0.82513301     0.42800
H196        H  0.91736629  0.11260526  0.88665649     0.43200
O197        O  0.08789501  0.76181116  0.30700684    -0.75700
O198        O  0.05700910  0.81699326  0.30688528    -0.54600
C199        C  0.07897918  0.79341771  0.32160714     0.78000
O200        O  0.06884742  0.78343651  0.10634663    -0.60300
O201        O  0.06593029  0.72217709  0.10308145    -0.53300
C202        C  0.08021538  0.75303960  0.09249482     0.70100
O203        O  0.09668335  0.85918116  0.19904941    -0.74800
O204        O  0.06297893  0.87506875  0.25030739    -0.55400
C205        C  0.08888718  0.88101897  0.22581853     0.76100
O206        O  0.08110864  0.66447260  0.22293971    -0.60000
O207        O  0.05872356  0.66729041  0.16448551    -0.53100
C208        C  0.07431448  0.65007447  0.19094801     0.72700
Zr209      Zr  0.07247794  0.72757750  0.24895124     2.54700
O210        O  0.13997863  0.72371805  0.24507612    -0.80600
O211        O  0.06771232  0.68297032  0.30003002    -0.94000
Zr212      Zr  0.08178815  0.80213432  0.16909702     2.64700
O213        O  0.14383467  0.77521167  0.17182648    -0.98900
O214        O  0.11681838  0.84444758  0.12913138    -0.81000
O215        O  0.07681484  0.79191219  0.23373907    -0.84300
O216        O  0.07864464  0.73854798  0.18373794    -2.19100
O217        O  0.94748237  0.67222042  0.21389164    -0.67700
O218        O  0.98013073  0.67023529  0.15944674    -0.52300
C219        C  0.95678553  0.65662804  0.18285346     0.71000
O220        O  0.96844435  0.87314995  0.18609146    -0.60600
O221        O  0.97320443  0.87113496  0.24820090    -0.52600
C222        C  0.95821701  0.88370639  0.21842028     0.72800
O223        O  0.97864640  0.78190808  0.10179875    -0.72000
O224        O  0.97813014  0.72041977  0.10429272    -0.50700
C225        C  0.96482439  0.75091585  0.09209163     0.74200
O226        O  0.95011867  0.75955552  0.30595577    -0.67400
O227        O  0.98103182  0.81474277  0.30714407    -0.54600
C228        C  0.96075147  0.78934178  0.32249779     0.72600
Zr229      Zr  0.96196562  0.73297771  0.24314144     2.77500
O230        O  0.89532765  0.74157253  0.23668556    -0.98100
O231        O  0.95177836  0.68366891  0.28877267    -0.78900
Zr232      Zr  0.97273916  0.81059942  0.16262697     2.70100
O233        O  0.90601213  0.80630544  0.17047498    -0.80200
O234        O  0.95518360  0.85007176  0.11042700    -0.99300
Zr235      Zr  0.02032638  0.82177631  0.25291591     2.21500
Zr236      Zr  0.02187720  0.72055725  0.15529385     2.11100
O237        O  0.96521697  0.74703638  0.17818853    -2.48000
O238        O  0.96493938  0.79759458  0.22711379    -0.80000
O239        O  0.01757336  0.70571168  0.22008776    -0.72200
O240        O  0.02786689  0.83497418  0.18839239    -2.33100
O241        O  0.01720635  0.75696368  0.26933074    -2.29300
O242        O  0.02673627  0.78233843  0.14745901    -0.73900
H243        H  0.09930941  0.72494744  0.17327770     0.78100
H244        H  0.03123520  0.86090597  0.18259372     0.79200
H245        H  0.94369266  0.73699349  0.16618270     0.81400
H246        H  0.01670967  0.75321909  0.29588296     0.79000
H247        H  0.09753305  0.86018340  0.11771606     0.42000
H248        H  0.95211445  0.87525998  0.12042837     0.41000
H249        H  0.90113576  0.81391849  0.19640188     0.40700
H250        H  0.88585750  0.71678556  0.23013901     0.38600
H251        H  0.97675619  0.67291951  0.29252924     0.41700
H252        H  0.05090233  0.69461160  0.31852962     0.36500
H253        H  0.14881623  0.74691265  0.25634935     0.42600
H254        H  0.15220500  0.77292432  0.14564428     0.39100
H255        H  0.88593745  0.74554832  0.26231185     0.44000
H256        H  0.09249783  0.68329283  0.31154733     0.42700
H257        H  0.15981710  0.79451722  0.18236975     0.42800
H258        H  0.97774381  0.85205595  0.09441692     0.43200
O259        O  0.21311587  0.87654649  0.04744208    -0.75700
O260        O  0.27511388  0.87332648  0.03989614    -0.54600
C261        C  0.24577771  0.88660439  0.05604499     0.78000
O262        O  0.23272104  0.67657933  0.07647767    -0.60300
O263        O  0.18090835  0.67119272  0.04171794    -0.53300
C264        C  0.20265814  0.65944567  0.06668021     0.70100
O265        O  0.32364640  0.76837006  0.07199447    -0.74800
O266        O  0.32756204  0.81867787  0.03398989    -0.55400
C267        C  0.34051924  0.79786591  0.05940221     0.76100
O268        O  0.13065359  0.78584521  0.06979310    -0.60000
O269        O  0.12172207  0.72863083  0.04573299    -0.53100
C270        C  0.11248788  0.75551019  0.06714619     0.72700
Zr271      Zr  0.18693390  0.81519063  0.04766100     2.54700
O272        O  0.19571233  0.82334564  0.11363054    -0.80600
O273        O  0.13626647  0.86004333  0.04943151    -0.94000
Zr274      Zr  0.26413525  0.73613744  0.05695589     2.64700
O275        O  0.25893702  0.74291418  0.12402272    -0.98900
O276        O  0.31340229  0.69003425  0.05736622    -0.81000
O277        O  0.25089714  0.80074047  0.05076219    -0.84300
O278        O  0.19971342  0.75122991  0.05569939    -2.19100
O279        O  0.12574409  0.78244099  0.95033686    -0.67700
O280        O  0.12323321  0.72155163  0.95861994    -0.52300
C281        C  0.11312948  0.75070729  0.94124840     0.71000
O282        O  0.32737050  0.75335285  0.92963705    -0.60600
O283        O  0.33245416  0.81042651  0.95626661    -0.52600
C284        C  0.34535491  0.78326278  0.93696678     0.72800
O285        O  0.23300430  0.66869095  0.93263913    -0.72000
O286        O  0.18007407  0.66685564  0.96823936    -0.50700
C287        C  0.20226425  0.65323223  0.94383258     0.74200
O288        O  0.21725228  0.86290994  0.92082958    -0.67400
O289        O  0.27238420  0.87462681  0.94879427    -0.54600
C290        C  0.24615263  0.88284288  0.92612698     0.72600
Zr291      Zr  0.18897605  0.80471144  0.93910428     2.77500
O292        O  0.19013475  0.78768449  0.87420107    -0.98100
O293        O  0.14759236  0.85180632  0.91650063    -0.78900
Zr294      Zr  0.26595510  0.72725799  0.94655994     2.70100
O295        O  0.26839103  0.72625089  0.87901114    -0.80200
O296        O  0.31106599  0.67762470  0.95349197    -0.99300
Zr297      Zr  0.27657031  0.82275584  0.99317196     2.21500
Zr298      Zr  0.17435472  0.72304961  0.00226402     2.11100
O299        O  0.20145905  0.74090290  0.94382660    -2.48000
O300        O  0.25355425  0.79186926  0.93985117    -0.80000
O301        O  0.16021137  0.78678441  0.99592394    -0.72200
O302        O  0.28969893  0.75775319  0.99939318    -2.33100
O303        O  0.21218306  0.83647419  0.99037553    -2.29300
O304        O  0.23881308  0.70741138  0.00397455    -0.73900
H305        H  0.18783260  0.74184901  0.07810507     0.78100
H306        H  0.31579935  0.75361827  0.00019493     0.79200
H307        H  0.19010063  0.72771456  0.92393348     0.81400
H308        H  0.20710299  0.86242441  0.98661551     0.79000
H309        H  0.32429873  0.69104194  0.03195687     0.42000
H310        H  0.29879859  0.65946515  0.97044917     0.41000
H311        H  0.24319317  0.71842255  0.87172758     0.40700
H312        H  0.21660821  0.78261631  0.86840987     0.38600
H313        H  0.13687876  0.86296789  0.93925563     0.41700
H314        H  0.11527958  0.84781088  0.03703748     0.36500
H315        H  0.22283096  0.82661976  0.11637127     0.42600
H316        H  0.26292313  0.76964887  0.12820318     0.39100
H317        H  0.17773260  0.76329840  0.87317592     0.44000
H318        H  0.14385248  0.88001495  0.03185852     0.42700
H319        H  0.23227791  0.73887377  0.13001823     0.42800
H320        H  0.31172362  0.66534469  0.92905286     0.43200
O321        O  0.07026394  0.07706640  0.18927506    -0.75700
O322        O  0.06232468  0.07987638  0.25103389    -0.54600
C323        C  0.07909791  0.06734021  0.22207521     0.78000
O324        O  0.08998611  0.27857593  0.21468785    -0.60300
O325        O  0.07547916  0.27520242  0.15370889    -0.53300
C326        C  0.08745030  0.29294007  0.18160085     0.70100
O327        O  0.08999139  0.18060348  0.30154634    -0.74800
O328        O  0.04909550  0.13271032  0.30594159    -0.55400
C329        C  0.07545450  0.15210366  0.31884422     0.76100
O330        O  0.09365975  0.16930031  0.10526681    -0.60000
O331        O  0.06778320  0.22610426  0.09567712    -0.53100
C332        C  0.08974573  0.19953880  0.08646365     0.72700
Zr333      Zr  0.07188670  0.13840196  0.16207751     2.54700
O334        O  0.13792833  0.12960435  0.17069097    -0.80600
O335        O  0.06825678  0.09406314  0.11181256    -0.94000
Zr336      Zr  0.07866069  0.21494568  0.24153267     2.64700
O337        O  0.14587218  0.20878280  0.23563059    -0.98900
O338        O  0.08466610  0.25768524  0.29283561    -0.81000
O339        O  0.07341837  0.15091363  0.22654755    -0.84300
O340        O  0.07921710  0.20163990  0.17669898    -2.19100
O341        O  0.97614180  0.17124201  0.10026401    -0.67700
O342        O  0.97976567  0.23230310  0.09960538    -0.52300
C343        C  0.96419823  0.20226819  0.08881871     0.71000
O344        O  0.95410846  0.19600195  0.30236645    -0.60600
O345        O  0.97157032  0.13530386  0.30000950    -0.52600
C346        C  0.95764743  0.16319311  0.31679717     0.72800
O347        O  0.95432048  0.28387411  0.20752001    -0.72000
O348        O  0.99546403  0.28837516  0.15919181    -0.50700
C349        C  0.96870943  0.30100142  0.17895823     0.74200
O350        O  0.94208103  0.09555120  0.19432232    -0.67400
O351        O  0.97141871  0.07656467  0.24623705    -0.54600
C352        C  0.94634273  0.07292629  0.22141898     0.72600
Zr353      Zr  0.96357664  0.14966704  0.16244559     2.77500
O354        O  0.89831817  0.16572558  0.16023953    -0.98100
O355        O  0.95142464  0.09899242  0.12094686    -0.78900
Zr356      Zr  0.96861351  0.22514071  0.24089544     2.70100
O357        O  0.90094799  0.22482841  0.24283045    -0.80200
O358        O  0.97498722  0.27517877  0.28509500    -0.99300
Zr359      Zr  0.01501746  0.12898175  0.25018686     2.21500
Zr360      Zr  0.02653776  0.23113543  0.14978541     2.11100
O361        O  0.96769378  0.21315563  0.17601116    -2.48000
O362        O  0.96263319  0.16127937  0.22671716    -0.80000
O363        O  0.02079734  0.16811597  0.13537463    -0.72200
O364        O  0.02075447  0.19341712  0.26541005    -2.33100
O365        O  0.01400804  0.11678498  0.18601820    -2.29300
O366        O  0.02648780  0.24492740  0.21480859    -0.73900
H367        H  0.10216470  0.21072158  0.16559432     0.78100
H368        H  0.02100073  0.19700900  0.29189694     0.79200
H369        H  0.94758551  0.22646840  0.16458711     0.81400
H370        H  0.00954551  0.09105937  0.18073085     0.79000
H371        H  0.05965089  0.25810800  0.30471426     0.42000
H372        H  0.99336820  0.29227104  0.27337861     0.41000
H373        H  0.89354653  0.24321418  0.22377867     0.40700
H374        H  0.89691902  0.18858494  0.14499317     0.38600
H375        H  0.97635362  0.08983966  0.11353418     0.41700
H376        H  0.05638759  0.10780570  0.09126176     0.36500
H377        H  0.14509347  0.14932745  0.18803458     0.42600
H378        H  0.15332535  0.22746027  0.21662340     0.39100
H379        H  0.88831769  0.14594178  0.14456529     0.44000
H380        H  0.04908045  0.07595841  0.12006158     0.42700
H381        H  0.15542777  0.21859984  0.25918859     0.42800
H382        H  0.95110412  0.28870711  0.28408930     0.43200
O383        O  0.12248771  0.92357448  0.19146327    -0.75700
O384        O  0.12452535  0.93070355  0.25331233    -0.54600
C385        C  0.11223745  0.91443771  0.22438574     0.78000
O386        O  0.32297558  0.90531510  0.20839325    -0.60300
O387        O  0.32593257  0.93898510  0.15509006    -0.53300
C388        C  0.33920496  0.91541315  0.17754803     0.70100
O389        O  0.23381049  0.90532892  0.30002202    -0.74800
O390        O  0.18342168  0.94306962  0.30914107    -0.55400
C391        C  0.20660256  0.91803671  0.31988526     0.76100
O392        O  0.21686839  0.90624460  0.10939534    -0.60000
O393        O  0.27161906  0.93503101  0.09561777    -0.53100
C394        C  0.24587023  0.91125045  0.08874464     0.72700
Zr395      Zr  0.18444365  0.92583123  0.16467363     2.54700
O396        O  0.17947045  0.86024857  0.17831755    -0.80600
O397        O  0.14273904  0.92036672  0.11242741    -0.94000
Zr398      Zr  0.26352733  0.92224006  0.24009483     2.64700
O399        O  0.26014546  0.85517835  0.23591099    -0.98900
O400        O  0.31136306  0.92137247  0.28707355    -0.81000
O401        O  0.19844756  0.92271419  0.22839306    -0.84300
O402        O  0.24886940  0.92266513  0.17611004    -2.19100
O403        O  0.21013005  0.02397542  0.09967313    -0.67700
O404        O  0.27179919  0.02180699  0.09699012    -0.52300
C405        C  0.24103364  0.03557070  0.08606479     0.71000
O406        O  0.23262932  0.04813282  0.30084742    -0.60600
O407        O  0.17354463  0.02657831  0.29655398    -0.52600
C408        C  0.19888611  0.04389954  0.31361927     0.72800
O409        O  0.32973744  0.03850760  0.21401744    -0.72000
O410        O  0.32938286  0.01329218  0.15616496    -0.50700
C411        C  0.34550786  0.03017670  0.18259758     0.74200
O412        O  0.13477121  0.05226474  0.19614637    -0.67400
O413        O  0.11837327  0.01893058  0.24784032    -0.54600
C414        C  0.11270819  0.04453324  0.22334013     0.72600
Zr415      Zr  0.18999001  0.03477500  0.16307909     2.77500
O416        O  0.20626319  0.09971986  0.15485739    -0.98100
O417        O  0.13705262  0.04952784  0.12497522    -0.78900
Zr418      Zr  0.26581196  0.03253125  0.24114517     2.70100
O419        O  0.26421653  0.09942133  0.23263290    -0.80200
O420        O  0.30883392  0.03879783  0.29220482    -0.99300
Zr421      Zr  0.17333041  0.97868235  0.25239449     2.21500
Zr422      Zr  0.27409454  0.97773523  0.14891043     2.11100
O423        O  0.25397470  0.03467986  0.17603377    -2.48000
O424        O  0.20158824  0.03370947  0.22751067    -0.80000
O425        O  0.21012292  0.97915413  0.13614668    -0.72200
O426        O  0.23864210  0.97755025  0.26613538    -2.33100
O427        O  0.16042254  0.98174964  0.18809509    -2.29300
O428        O  0.28887470  0.97720523  0.21370486    -0.73900
H429        H  0.25956478  0.90091131  0.16485234     0.78100
H430        H  0.24277717  0.97758100  0.29253816     0.79200
H431        H  0.26678538  0.05539291  0.16445363     0.81400
H432        H  0.13433146  0.98470829  0.18322088     0.79000
H433        H  0.30829082  0.94513263  0.30019718     0.42000
H434        H  0.32883413  0.02068628  0.28705115     0.41000
H435        H  0.28538881  0.10501692  0.21557674     0.40700
H436        H  0.21431140  0.10778172  0.17961304     0.38600
H437        H  0.12466015  0.02544509  0.12104094     0.41700
H438        H  0.15324540  0.93722380  0.09308733     0.36500
H439        H  0.20459476  0.85296480  0.18637206     0.42600
H440        H  0.28033389  0.84612969  0.25197086     0.39100
H441        H  0.22910708  0.10032829  0.13920126     0.44000
H442        H  0.11944443  0.93267647  0.12045139     0.42700
H443        H  0.23697439  0.84832340  0.24952744     0.42800
H444        H  0.32065603  0.06330003  0.28812720     0.43200
O445        O  0.32427226  0.19059991  0.06467051    -0.75700
O446        O  0.32532796  0.13603395  0.03323738    -0.54600
C447        C  0.33915263  0.15901056  0.05604645     0.78000
O448        O  0.12554743  0.17223971  0.03935093    -0.60300
O449        O  0.12408085  0.23343511  0.03856419    -0.53300
C450        C  0.11334364  0.20241734  0.05272112     0.70100
O451        O  0.21014638  0.08814983  0.06716364    -0.74800
O452        O  0.26618251  0.07745011  0.03913204    -0.55400
C453        C  0.23944435  0.06866809  0.06187670     0.76100
O454        O  0.23311333  0.28377588  0.06314379    -0.60000
O455        O  0.17865971  0.28684784  0.03194129    -0.53100
C456        C  0.20211336  0.30009391  0.05442836     0.72700
Zr457      Zr  0.26626438  0.22430736  0.04694790     2.54700
O458        O  0.26812533  0.22704254  0.11435709    -0.80600
O459        O  0.31466554  0.27099949  0.03885082    -0.94000
Zr460      Zr  0.18657159  0.14897738  0.05303399     2.64700
O461        O  0.18827740  0.16696635  0.11799809    -0.98900
O462        O  0.14021307  0.10924820  0.08194558    -0.81000
O463        O  0.25125814  0.15970821  0.05085530    -0.84300
O464        O  0.20134155  0.21276817  0.04979509    -2.19100
O465        O  0.24271984  0.28081092  0.92159134    -0.67700
O466        O  0.18853554  0.28951511  0.95445867    -0.52300
C467        C  0.21473654  0.30063578  0.93220214     0.71000
O468        O  0.21448939  0.08804406  0.92376300    -0.60600
O469        O  0.26919580  0.07693942  0.95263104    -0.52600
C470        C  0.24390249  0.06869997  0.92907225     0.72800
O471        O  0.12220800  0.17193381  0.95333503    -0.72000
O472        O  0.12412991  0.23345273  0.94963514    -0.50700
C473        C  0.11139903  0.20237923  0.93877062     0.74200
O474        O  0.32689732  0.18822579  0.92414137    -0.67400
O475        O  0.32553245  0.13301761  0.95458614    -0.54600
C476        C  0.34194619  0.15715137  0.93389983     0.72600
Zr477      Zr  0.26544389  0.21784593  0.93613882     2.77500
O478        O  0.25729009  0.20605139  0.87047106    -0.98100
O479        O  0.31585149  0.26098772  0.92213909    -0.78900
Zr480      Zr  0.18295299  0.14371404  0.94420907     2.70100
O481        O  0.17120755  0.15458100  0.87923776    -0.80200
O482        O  0.13824878  0.09286150  0.94599382    -0.99300
Zr483      Zr  0.27212370  0.12989671  0.99525204     2.21500
Zr484      Zr  0.17554783  0.23533323  0.99272236     2.11100
O485        O  0.19984954  0.20721210  0.93755504    -2.48000
O486        O  0.24794550  0.15431430  0.93933540    -0.80000
O487        O  0.24118207  0.24713203  0.99043020    -0.72200
O488        O  0.20764254  0.11786320  0.99899654    -2.33100
O489        O  0.28925166  0.19423629  0.99262421    -2.29300
O490        O  0.15978103  0.17173305  0.99811329    -0.73900
H491        H  0.19031386  0.22526792  0.07076276     0.78100
H492        H  0.20219555  0.09168296  0.99971604     0.79200
H493        H  0.18881301  0.21803065  0.91572706     0.81400
H494        H  0.31590623  0.19710607  0.99222572     0.79000
H495        H  0.12887941  0.09621940  0.06090149     0.42000
H496        H  0.15201246  0.07117950  0.95562512     0.41000
H497        H  0.19588006  0.16079485  0.86835929     0.40700
H498        H  0.27324726  0.22471333  0.85769664     0.38600
H499        H  0.32748354  0.26538787  0.94640788     0.41700
H500        H  0.30203306  0.29235130  0.02713273     0.36500
H501        H  0.27650935  0.25251975  0.11962121     0.42600
H502        H  0.21323533  0.17783091  0.12129777     0.39100
H503        H  0.27018360  0.18223287  0.86620470     0.44000
H504        H  0.33119057  0.26123118  0.01902939     0.42700
H505        H  0.17079504  0.18793528  0.12060107     0.42800
H506        H  0.12063411  0.09902893  0.96639348     0.43200
O507        O  0.89844507  0.04472208  0.19191894    -0.75700
O508        O  0.91370447  0.01891620  0.24711665    -0.54600
C509        C  0.91859692  0.04283827  0.22081763     0.78000
O510        O  0.71191431  0.04846286  0.21464300    -0.60300
O511        O  0.70028185  0.00729462  0.16844457    -0.53300
C512        C  0.69198886  0.03582545  0.18769570     0.70100
O513        O  0.80701502  0.04868243  0.30199355    -0.74800
O514        O  0.85837844  0.01217220  0.30484889    -0.55400
C515        C  0.83743438  0.03769868  0.31779992     0.76100
O516        O  0.81675098  0.01767373  0.10144526    -0.60000
O517        O  0.75516524  0.01831606  0.10833225    -0.53100
C518        C  0.78542135  0.03200203  0.09403784     0.72700
Zr519      Zr  0.84499321  0.02161992  0.16141672     2.54700
O520        O  0.83328547  0.08747577  0.15442763    -0.80600
O521        O  0.89595230  0.02333968  0.11586829    -0.94000
Zr522      Zr  0.77153775  0.02948186  0.24565292     2.64700
O523        O  0.77342770  0.09678668  0.24262263    -0.98900
O524        O  0.72473089  0.02531975  0.29504694    -0.81000
O525        O  0.83537469  0.02722422  0.22611766    -0.84300
O526        O  0.78177239  0.02615015  0.18019538    -2.19100
O527        O  0.81739859  0.92688070  0.10885509    -0.67700
O528        O  0.75577258  0.92606109  0.10742985    -0.52300
C529        C  0.78731489  0.91355631  0.09615640     0.71000
O530        O  0.80705128  0.90245508  0.30845719    -0.60600
O531        O  0.86120677  0.93537986  0.30587960    -0.52600
C532        C  0.83913726  0.91171421  0.32105880     0.72800
O533        O  0.70806211  0.90251977  0.23241335    -0.72000
O534        O  0.70159650  0.93167258  0.17616858    -0.50700
C535        C  0.68952749  0.91107821  0.20323045     0.74200
O536        O  0.90246856  0.89968118  0.19233220    -0.67400
O537        O  0.91731653  0.93130822  0.24430304    -0.54600
C538        C  0.92430069  0.90700956  0.21903427     0.72600
Zr539      Zr  0.84103735  0.91291811  0.17014563     2.77500
O540        O  0.81597958  0.85140689  0.18255372    -0.98100
O541        O  0.87769652  0.87609296  0.12765730    -0.78900
Zr542      Zr  0.77052696  0.91942504  0.25327061     2.70100
O543        O  0.77136589  0.85208348  0.25218627    -0.80200
O544        O  0.72958274  0.92485773  0.30741193    -0.99300
Zr545      Zr  0.86321159  0.97323073  0.25171626     2.21500
Zr546      Zr  0.75396603  0.97025812  0.15890363     2.11100
O547        O  0.77758863  0.91512288  0.18756772    -2.48000
O548        O  0.83428478  0.91667724  0.23509636    -0.80000
O549        O  0.81758107  0.96661045  0.14123256    -0.72200
O550        O  0.79908038  0.97534786  0.27168001    -2.33100
O551        O  0.87267415  0.96799540  0.18686570    -2.29300
O552        O  0.74481034  0.97344273  0.22496336    -0.73900
H553        H  0.77077882  0.04767919  0.16874597     0.78100
H554        H  0.79699338  0.97639761  0.29837764     0.79200
H555        H  0.76406872  0.89408341  0.17849900     0.81400
H556        H  0.89871162  0.96764527  0.17997878     0.79000
H557        H  0.73844045  0.01670893  0.31710902     0.42000
H558        H  0.70765624  0.93859270  0.29840020     0.41000
H559        H  0.75215159  0.84441871  0.27070481     0.40700
H560        H  0.80424231  0.84431894  0.15905267     0.38600
H561        H  0.88965043  0.89525687  0.11166764     0.41700
H562        H  0.88953498  0.00436243  0.09741672     0.36500
H563        H  0.84308681  0.09852190  0.17730030     0.42600
H564        H  0.77052086  0.10293687  0.21597874     0.39100
H565        H  0.83791025  0.83518430  0.18493541     0.44000
H566        H  0.91768308  0.01288066  0.12877296     0.42700
H567        H  0.74974699  0.10467246  0.25447580     0.42800
H568        H  0.72038093  0.89939053  0.31221173     0.43200
O569        O  0.81533032  0.08796602  0.08052538    -0.75700
O570        O  0.76414412  0.07538661  0.04661166    -0.54600
C571        C  0.78738025  0.06737286  0.07237879     0.78000
O572        O  0.80808588  0.28493988  0.06204296    -0.60300
O573        O  0.86495026  0.28025985  0.03458612    -0.53300
C574        C  0.84105588  0.29780614  0.05386064     0.70100
O575        O  0.71057793  0.19900757  0.06052690    -0.74800
O576        O  0.71106979  0.13908285  0.04051428    -0.55400
C577        C  0.69491391  0.16718418  0.05503304     0.76100
O578        O  0.90773957  0.17361437  0.07670512    -0.60000
O579        O  0.92229530  0.22451833  0.04151099    -0.53100
C580        C  0.92933646  0.20082467  0.06742698     0.72700
Zr581      Zr  0.84741579  0.14590276  0.06361734     2.54700
O582        O  0.82646879  0.16331022  0.12563952    -0.80600
O583        O  0.89136101  0.09878817  0.08148066    -0.94000
Zr584      Zr  0.77409866  0.22564191  0.04926792     2.64700
O585        O  0.76853221  0.22852467  0.11661930    -0.98900
O586        O  0.73028383  0.27564068  0.03816446    -0.81000
O587        O  0.78412776  0.16073783  0.05766356    -0.84300
O588        O  0.83805123  0.20990769  0.05565530    -2.19100
O589        O  0.91611551  0.16181497  0.93511386    -0.67700
O590        O  0.92300385  0.22047177  0.95621504    -0.52300
C591        C  0.93328643  0.19289156  0.93619433     0.71000
O592        O  0.72402011  0.18226517  0.92263113    -0.60600
O593        O  0.71464410  0.13420028  0.96316413    -0.52600
C594        C  0.70517131  0.15410674  0.93545054     0.72800
O595        O  0.81303508  0.27559656  0.92514898    -0.72000
O596        O  0.86600439  0.27858598  0.95846017    -0.50700
C597        C  0.84289960  0.29257835  0.93551451     0.74200
O598        O  0.83082773  0.07318947  0.95367598    -0.67400
O599        O  0.76884230  0.07952639  0.95631822    -0.54600
C600        C  0.79851038  0.06475206  0.94257720     0.72600
Zr601      Zr  0.85769895  0.13420211  0.95437556     2.77500
O602        O  0.84741698  0.12842558  0.88833685    -0.98100
O603        O  0.90666390  0.08781158  0.95267829    -0.78900
Zr604      Zr  0.78268161  0.21448501  0.93970180     2.70100
O605        O  0.79234197  0.20846255  0.87296539    -0.80200
O606        O  0.73233823  0.25899580  0.93362454    -0.99300
Zr607      Zr  0.76561952  0.12889605  0.00352230     2.21500
Zr608      Zr  0.86967529  0.22582667  0.99896009     2.11100
O609        O  0.84666457  0.19814211  0.94434443    -2.48000
O610        O  0.79441240  0.14974062  0.94711979    -0.80000
O611        O  0.88066151  0.16206217  0.00828925    -0.72200
O612        O  0.75345707  0.19408256  0.99572189    -2.33100
O613        O  0.82898282  0.11417475  0.01056009    -2.29300
O614        O  0.80585282  0.24342308  0.99346784    -0.73900
H615        H  0.84849532  0.22272297  0.07644656     0.78100
H616        H  0.72717099  0.19858468  0.99318044     0.79200
H617        H  0.85974992  0.20712903  0.92238430     0.81400
H618        H  0.83313949  0.08816203  0.01507569     0.79000
H619        H  0.71435727  0.26652119  0.01806101     0.42000
H620        H  0.73990210  0.28031053  0.94880339     0.41000
H621        H  0.78323787  0.18329601  0.86735483     0.40700
H622        H  0.82194770  0.11839994  0.88633633     0.38600
H623        H  0.91737663  0.08833150  0.97779477     0.41700
H624        H  0.88654298  0.07779418  0.06480353     0.36500
H625        H  0.80194167  0.15120209  0.12915005     0.42600
H626        H  0.76935716  0.25526595  0.12222261     0.39100
H627        H  0.84513500  0.15428048  0.87949256     0.44000
H628        H  0.88251437  0.09037371  0.10622668     0.42700
H629        H  0.74258312  0.22112463  0.12248040     0.42800
H630        H  0.73436356  0.26806997  0.90764653     0.43200
O631        O  0.10455102  0.85812019  0.79807783    -0.75700
O632        O  0.06977522  0.87547787  0.74871079    -0.54600
C633        C  0.09580718  0.88102099  0.77234406     0.78000
O634        O  0.08228389  0.66225366  0.78705910    -0.60300
O635        O  0.06144830  0.66660991  0.84687442    -0.53300
C636        C  0.07663395  0.64870643  0.82048534     0.70100
O637        O  0.08700994  0.75147330  0.69108664    -0.74800
O638        O  0.06413321  0.81063875  0.69117568    -0.55400
C639        C  0.08099982  0.78344748  0.67565283     0.76100
O640        O  0.10146493  0.77507037  0.88436597    -0.60000
O641        O  0.06460366  0.72605945  0.90115031    -0.53100
C642        C  0.09112649  0.74965544  0.90705811     0.72700
Zr643      Zr  0.08448675  0.80120612  0.82666337     2.54700
O644        O  0.14956347  0.78989386  0.81211315    -0.80600
O645        O  0.09035677  0.84886689  0.87334109    -0.94000
Zr646      Zr  0.07263397  0.72333056  0.75299790     2.64700
O647        O  0.14014513  0.72005140  0.75090441    -0.98900
O648        O  0.06481040  0.67413092  0.70819418    -0.81000
O649        O  0.08021378  0.78832414  0.76334429    -0.84300
O650        O  0.07847263  0.73713625  0.81673088    -2.19100
O651        O  0.97957673  0.78355139  0.89980452    -0.67700
O652        O  0.97748870  0.72173481  0.89876508    -0.52300
C653        C  0.96562104  0.75267070  0.91115812     0.71000
O654        O  0.94738926  0.77315611  0.70114547    -0.60600
O655        O  0.98439539  0.82437111  0.69371163    -0.52600
C656        C  0.95812442  0.80293610  0.68339590     0.72800
O657        O  0.94437851  0.67708128  0.78447936    -0.72000
O658        O  0.98215067  0.66557952  0.83380453    -0.50700
C659        C  0.95679211  0.65615197  0.81067482     0.74200
O660        O  0.97578492  0.87371802  0.81333049    -0.67400
O661        O  0.98060279  0.87183506  0.75085464    -0.54600
C662        C  0.96575779  0.88408336  0.78102055     0.72600
Zr663      Zr  0.97595013  0.81131486  0.83778565     2.77500
O664        O  0.90972493  0.80625234  0.82847393    -0.98100
O665        O  0.95937432  0.85300079  0.88773472    -0.78900
Zr666      Zr  0.96328391  0.73763446  0.75878968     2.70100
O667        O  0.89669491  0.74675865  0.76769784    -0.80200
O668        O  0.95972499  0.69412368  0.70778718    -0.99300
Zr669      Zr  0.02657211  0.82214345  0.74495280     2.21500
Zr670      Zr  0.02204037  0.71870990  0.84738027     2.11100
O671        O  0.96735645  0.74808685  0.82417165    -2.48000
O672        O  0.97011573  0.80094284  0.77339474    -0.80000
O673        O  0.03001693  0.78226196  0.85907251    -0.72200
O674        O  0.01989962  0.75731626  0.73123269    -2.33100
O675        O  0.03162545  0.83379103  0.80898387    -2.29300
O676        O  0.01612613  0.70587948  0.78259208    -0.73900
H677        H  0.09971830  0.72450741  0.82688988     0.78100
H678        H  0.01770982  0.75381711  0.70482961     0.79200
H679        H  0.94548944  0.73822557  0.83657364     0.81400
H680        H  0.03656910  0.85945772  0.81407333     0.79000
H681        H  0.04452670  0.68287931  0.69209112     0.42000
H682        H  0.97590876  0.67323768  0.71515192     0.41000
H683        H  0.89012080  0.73214359  0.79027196     0.40700
H684        H  0.90211519  0.78543132  0.84490352     0.38600
H685        H  0.98340621  0.86309127  0.89602743     0.41700
H686        H  0.07375423  0.84075913  0.89408164     0.36500
H687        H  0.15354428  0.80059795  0.78695382     0.42600
H688        H  0.14600211  0.70771569  0.72711948     0.39100
H689        H  0.89953900  0.82864808  0.84030212     0.44000
H690        H  0.07795400  0.87113521  0.86324802     0.42700
H691        H  0.14827772  0.74596459  0.74680162     0.42800
H692        H  0.93417859  0.68396930  0.70935969     0.43200
O693        O  0.82021281  0.04532017  0.69716006    -0.75700
O694        O  0.86681879  0.00327144  0.69004533    -0.54600
C695        C  0.84780995  0.03103625  0.67872818     0.78000
O696        O  0.82880118  0.04502433  0.88991748    -0.60300
O697        O  0.77194458  0.01939720  0.90097995    -0.53300
C698        C  0.79889445  0.04107310  0.90944214     0.70100
O699        O  0.92250407  0.02622819  0.80866203    -0.74800
O700        O  0.92038751  0.01935111  0.74698058    -0.55400
C701        C  0.93223042  0.03600746  0.77582723     0.76100
O702        O  0.72048945  0.03932219  0.78084217    -0.60000
O703        O  0.72076089  0.02249118  0.84184852    -0.53100
C704        C  0.70484029  0.03589569  0.81331840     0.72700
Zr705      Zr  0.78429362  0.03045236  0.75493148     2.54700
O706        O  0.78641434  0.09733668  0.76259542    -0.80600
O707        O  0.73995971  0.03946407  0.70540281    -0.94000
Zr708      Zr  0.85995556  0.02682449  0.83340667     2.64700
O709        O  0.86229367  0.09117515  0.81325791    -0.98900
O710        O  0.90009775  0.03812730  0.88555174    -0.81000
O711        O  0.84855349  0.02811425  0.76924173    -0.84300
O712        O  0.79630252  0.03225867  0.81966413    -2.19100
O713        O  0.71542958  0.91012783  0.78621835    -0.67700
O714        O  0.71231842  0.94706525  0.83719905    -0.52300
C715        C  0.69846137  0.92331257  0.81537306     0.71000
O716        O  0.91022237  0.90011055  0.80817455    -0.60600
O717        O  0.92674357  0.93127948  0.75507179    -0.52600
C718        C  0.93247577  0.90704720  0.78074862     0.72800
O719        O  0.82680023  0.93200198  0.89760113    -0.72000
O720        O  0.76546692  0.93353259  0.89868702    -0.50700
C721        C  0.79586313  0.91938024  0.91005516     0.74200
O722        O  0.81522278  0.90108954  0.69904953    -0.67400
O723        O  0.87495040  0.92015268  0.70634347    -0.54600
C724        C  0.84990428  0.90372118  0.68812153     0.72600
Zr725      Zr  0.77827177  0.91998862  0.75637349     2.77500
O726        O  0.77585807  0.85287694  0.76272718    -0.98100
O727        O  0.73455868  0.92272140  0.70562086    -0.78900
Zr728      Zr  0.85161996  0.91737955  0.83656395     2.70100
O729        O  0.82809370  0.85444616  0.83608220    -0.80200
O730        O  0.89701986  0.89362721  0.87921641    -0.99300
Zr731      Zr  0.87237161  0.97063117  0.74793689     2.21500
Zr732      Zr  0.76886553  0.97840098  0.84707211     2.11100
O733        O  0.78814899  0.92010727  0.82191856    -2.48000
O734        O  0.84193832  0.91686137  0.77209897    -0.80000
O735        O  0.75658860  0.97686568  0.78179566    -0.72200
O736        O  0.88340889  0.96942824  0.81253687    -2.33100
O737        O  0.80791325  0.97363360  0.73101320    -2.29300
O738        O  0.83234744  0.97437208  0.86173172    -0.73900
H739        H  0.78601120  0.05454321  0.83027463     0.78100
H740        H  0.90916291  0.96609852  0.81871671     0.79200
H741        H  0.77451437  0.90003700  0.83374665     0.81400
H742        H  0.80496303  0.97320136  0.70443651     0.79000
H743        H  0.91377128  0.01463640  0.88909765     0.42000
H744        H  0.89611032  0.91064589  0.90054943     0.41000
H745        H  0.83703941  0.84442468  0.81208238     0.40700
H746        H  0.75148531  0.84590372  0.75253552     0.38600
H747        H  0.72383346  0.94790050  0.70703839     0.41700
H748        H  0.74698063  0.02093694  0.68651130     0.36500
H749        H  0.76180254  0.10383468  0.77335569     0.42600
H750        H  0.83749779  0.10135645  0.81954553     0.39100
H751        H  0.79431843  0.84364679  0.74437506     0.44000
H752        H  0.74673865  0.06362464  0.69394819     0.42700
H753        H  0.87927614  0.10284571  0.83083311     0.42800
H754        H  0.88563350  0.87035545  0.88841281     0.43200
O755        O  0.71989343  0.76686225  0.07844565    -0.75700
O756        O  0.71698862  0.81945481  0.04355815    -0.54600
C757        C  0.70432655  0.79771927  0.06898131     0.78000
O758        O  0.91209270  0.78212398  0.07467890    -0.60300
O759        O  0.92174556  0.72621511  0.04740222    -0.53300
C760        C  0.93102683  0.75257177  0.06947538     0.70100
O761        O  0.82074392  0.86250966  0.07823612    -0.74800
O762        O  0.76825042  0.87441009  0.04557437    -0.55400
C763        C  0.79159144  0.88158648  0.07142686     0.76100
O764        O  0.80256292  0.67135081  0.07126940    -0.60000
O765        O  0.85802496  0.66572481  0.03962569    -0.53100
C766        C  0.83187499  0.65322985  0.06126213     0.72700
Zr767      Zr  0.77584118  0.73243302  0.05709148     2.54700
O768        O  0.77850455  0.73053432  0.12453190    -0.80600
O769        O  0.72480728  0.68820454  0.05509660    -0.94000
Zr770      Zr  0.85368991  0.80872543  0.05725833     2.64700
O771        O  0.84762656  0.79815396  0.12367128    -0.98900
O772        O  0.90063962  0.85716651  0.05402929    -0.81000
O773        O  0.78953279  0.79653746  0.05637116    -0.84300
O774        O  0.84093419  0.74465666  0.05866729    -2.19100
O775        O  0.81458745  0.67499488  0.92905485    -0.67700
O776        O  0.86701549  0.67014942  0.96361847    -0.52300
C777        C  0.84515591  0.65858612  0.93863551     0.71000
O778        O  0.82744875  0.86716344  0.92861103    -0.60600
O779        O  0.77144231  0.87675198  0.95716671    -0.52600
C780        C  0.79765773  0.88589585  0.93385927     0.72800
O781        O  0.91336340  0.78405007  0.92906139    -0.72000
O782        O  0.92328393  0.72921635  0.95934548    -0.50700
C783        C  0.93236502  0.75491549  0.93541467     0.74200
O784        O  0.71877335  0.76128686  0.93026485    -0.67400
O785        O  0.71310670  0.81537984  0.96243656    -0.54600
C786        C  0.70075472  0.79081874  0.94012714     0.72600
Zr787      Zr  0.77939710  0.73203708  0.94677894     2.77500
O788        O  0.77935022  0.73300346  0.87911915    -0.98100
O789        O  0.73533002  0.68109508  0.95222625    -0.78900
Zr790      Zr  0.85596783  0.81042156  0.94869623     2.70100
O791        O  0.84883872  0.80182130  0.88281038    -0.80200
O792        O  0.90624499  0.85546281  0.95159377    -0.99300
Zr793      Zr  0.76709623  0.82337807  0.00054678     2.21500
Zr794      Zr  0.86968548  0.72185740  0.00357866     2.11100
O795        O  0.84402114  0.74629499  0.94786882    -2.48000
O796        O  0.79207156  0.79693583  0.94566079    -0.80000
O797        O  0.80439952  0.70789436  0.00262433    -0.72200
O798        O  0.83099275  0.83701474  0.00269268    -2.33100
O799        O  0.75241021  0.75834699  0.00131235    -2.29300
O800        O  0.88209963  0.78568660  0.00315393    -0.73900
H801        H  0.85151501  0.73284003  0.08019088     0.78100
H802        H  0.83523563  0.86338978  0.00279426     0.79200
H803        H  0.85612300  0.73580402  0.92631680     0.81400
H804        H  0.72586338  0.75455292  0.00162140     0.79000
H805        H  0.88833615  0.87853159  0.04200341     0.42000
H806        H  0.89499114  0.87732833  0.96365625     0.41000
H807        H  0.82348659  0.79174873  0.88000930     0.40700
H808        H  0.80294575  0.72099391  0.87147934     0.38600
H809        H  0.72028131  0.68667719  0.97471414     0.41700
H810        H  0.70380053  0.70213301  0.04438884     0.36500
H811        H  0.75409994  0.72036180  0.13267239     0.42600
H812        H  0.82108161  0.79170994  0.12731641     0.39100
H813        H  0.75980895  0.71504283  0.87250511     0.44000
H814        H  0.71747277  0.68413735  0.08143977     0.42700
H815        H  0.86066055  0.77452199  0.12841878     0.42800
H816        H  0.92335797  0.84532208  0.97037740     0.43200
C817        C  0.90614003  0.60705341  0.81860189    -0.09500
C818        C  0.94354308  0.61727665  0.81386227     0.06600
C819        C  0.96998848  0.58915780  0.81464002    -0.03300
C820        C  0.96200881  0.55585463  0.83278331    -0.07800
C821        C  0.92516194  0.54555969  0.84150763     0.05800
C822        C  0.89700791  0.57014864  0.82867065    -0.02800
Br823      Br  0.84780840  0.55333240  0.81834394    -0.02500
H824        H  0.88437494  0.62704080  0.81347162     0.09700
H825        H  0.98537019  0.53920251  0.83977153     0.07700
Br826      Br  0.01315954  0.59234151  0.78322610    -0.02900
C827        C  0.90370677  0.57450866  0.91680882    -0.09500
C828        C  0.87681909  0.54782648  0.90882625     0.06600
C829        C  0.83906442  0.55875222  0.90834989    -0.03300
C830        C  0.82927375  0.59598671  0.91386577    -0.07800
C831        C  0.85630916  0.62250927  0.92225620     0.05800
C832        C  0.89407104  0.61142687  0.92218172    -0.02800
Br833      Br  0.93451958  0.64572862  0.92624840    -0.02500
H834        H  0.93284006  0.56689991  0.91668692     0.09700
H835        H  0.80017233  0.60364187  0.91413598     0.07700
Br836      Br  0.79965656  0.52460386  0.89910864    -0.02900
C837        C  0.95826688  0.39059361  0.86707638    -0.09500
C838        C  0.92875291  0.40819454  0.85004163     0.06600
C839        C  0.91245399  0.39158569  0.81912311    -0.03300
C840        C  0.92548166  0.35703609  0.80652808    -0.07800
C841        C  0.95462869  0.33867187  0.82481412     0.05800
C842        C  0.97129126  0.35670856  0.85538639    -0.02800
Br843      Br  0.01133131  0.33834948  0.88529959    -0.02500
H844        H  0.97114077  0.40286819  0.89063833     0.09700
H845        H  0.91217640  0.34418821  0.78321112     0.07700
Br846      Br  0.87228343  0.41529355  0.79405994    -0.02900
C847        C  0.88510961  0.34733249  0.93702939    -0.09500
C848        C  0.85235626  0.33163461  0.92288516     0.06600
C849        C  0.82994882  0.35489185  0.90058135    -0.03300
C850        C  0.84128137  0.39173084  0.89269083    -0.07800
C851        C  0.87318964  0.40710015  0.90880824     0.05800
C852        C  0.89423325  0.38455322  0.93231516    -0.02800
Br853      Br  0.93622494  0.40264890  0.95878830    -0.02500
H854        H  0.90422787  0.33059223  0.95246013     0.09700
H855        H  0.82500029  0.40858127  0.87399271     0.07700
Br856      Br  0.78397489  0.33874206  0.88008506    -0.02900
C857        C  0.93293519  0.55361650  0.17857305    -0.09500
C858        C  0.93135392  0.54888783  0.13977793     0.06600
C859        C  0.93691958  0.58022168  0.11674757    -0.03300
C860        C  0.93863082  0.61532817  0.13225496    -0.07800
C861        C  0.94128294  0.62036876  0.17088560     0.05800
C862        C  0.93808842  0.58883629  0.19418617    -0.02800
Br863      Br  0.94121920  0.59181999  0.24705587    -0.02500
H864        H  0.92903989  0.52991125  0.19688251     0.09700
H865        H  0.94193533  0.63879620  0.11348298     0.07700
Br866      Br  0.94706289  0.57698013  0.06432086    -0.02900
C867        C  0.84032446  0.60307377  0.10988428    -0.09500
C868        C  0.83562497  0.61410454  0.07291724     0.06600
C869        C  0.83816791  0.58715817  0.04558188    -0.03300
C870        C  0.85576118  0.55369103  0.05278673    -0.07800
C871        C  0.86565559  0.54353186  0.08916544     0.05800
C872        C  0.85193956  0.56668246  0.11808135    -0.02800
Br873      Br  0.84434325  0.54876806  0.16794480    -0.02500
H874        H  0.83458843  0.62227191  0.13211393     0.09700
H875        H  0.86184149  0.53713957  0.02907689     0.07700
Br876      Br  0.81249798  0.59312751  0.00027376    -0.02900
C877        C  0.95836606  0.38993551  0.12322875    -0.09500
C878        C  0.93295503  0.40986349  0.14447955     0.06600
C879        C  0.91757794  0.39358952  0.17704270    -0.03300
C880        C  0.92971992  0.35842763  0.18883920    -0.07800
C881        C  0.95463358  0.33787368  0.16669308     0.05800
C882        C  0.96660728  0.35344566  0.13208048    -0.02800
Br883      Br  0.98845304  0.32559192  0.09198623    -0.02500
H884        H  0.96910475  0.40181967  0.09749484     0.09700
H885        H  0.91899230  0.34689663  0.21473906     0.07700
Br886      Br  0.87993304  0.41826127  0.20577196    -0.02900
C887        C  0.89933364  0.38619173  0.06226029    -0.09500
C888        C  0.87797373  0.40745869  0.08637559     0.06600
C889        C  0.84338466  0.39351084  0.09916908    -0.03300
C890        C  0.83142842  0.35793982  0.08872097    -0.07800
C891        C  0.85382938  0.33551097  0.06572845     0.05800
C892        C  0.88874358  0.35045425  0.05296709    -0.02800
Br893      Br  0.92581758  0.32493465  0.02371787    -0.02500
H894        H  0.92535546  0.39721110  0.05136470     0.09700
H895        H  0.80468310  0.34787555  0.09869592     0.07700
Br896      Br  0.81137157  0.42284711  0.12998058    -0.02900
C897        C  0.84914057  0.46443562  0.01829535    -0.09500
C898        C  0.88230405  0.47412647  0.03622355     0.06600
C899        C  0.91306506  0.48325208  0.01295302    -0.03300
C900        C  0.90949108  0.48776789  0.97459481    -0.07800
C901        C  0.87709676  0.47778444  0.95623358     0.05800
C902        C  0.84677299  0.46486564  0.97881737    -0.02800
Br903      Br  0.80160048  0.44739081  0.95812367    -0.02500
H904        H  0.82518345  0.45612599  0.03496532     0.09700
H905        H  0.93382289  0.49583214  0.95835975     0.07700
Br906      Br  0.96268588  0.48180712  0.02938372    -0.02900
C907        C  0.07640863  0.55819286  0.14159956    -0.09500
C908        C  0.10725852  0.54075349  0.15611719     0.06600
C909        C  0.12588045  0.55782875  0.18563021    -0.03300
C910        C  0.11352048  0.59239131  0.19907821    -0.07800
C911        C  0.08383476  0.61100713  0.18205108     0.05800
C912        C  0.06523934  0.59269511  0.15292044    -0.02800
Br913      Br  0.02774578  0.61288046  0.12136215    -0.02500
H914        H  0.06367827  0.54746413  0.11729591     0.09700
H915        H  0.12860207  0.60566085  0.22103138     0.07700
Br916      Br  0.16945243  0.53616395  0.20644355    -0.02900
C917        C  0.14220880  0.57585051  0.08696584    -0.09500
C918        C  0.16704681  0.54938288  0.09996124     0.06600
C919        C  0.20461692  0.55991766  0.10424863    -0.03300
C920        C  0.21622345  0.59645999  0.09542757    -0.07800
C921        C  0.19055436  0.62311888  0.08313209     0.05800
C922        C  0.15265866  0.61226663  0.08069179    -0.02800
Br923      Br  0.11201112  0.64483495  0.06918792    -0.02500
H924        H  0.11386793  0.56820812  0.08150040     0.09700
H925        H  0.24536534  0.60362963  0.09712439     0.07700
Br926      Br  0.24099335  0.52538430  0.12131732    -0.02900
C927        C  0.07490583  0.34839537  0.14376189    -0.09500
C928        C  0.09541899  0.33285797  0.17294116     0.06600
C929        C  0.12243371  0.35527500  0.18959728    -0.03300
C930        C  0.12968044  0.39114662  0.17500609    -0.07800
C931        C  0.11028010  0.40514056  0.14406939     0.05800
C932        C  0.08211297  0.38335266  0.12916828    -0.02800
Br933      Br  0.05281122  0.39808471  0.08797583    -0.02500
H934        H  0.05328673  0.33255310  0.13108310     0.09700
H935        H  0.15118155  0.40784795  0.18722958     0.07700
Br936      Br  0.15096550  0.33806042  0.23067296    -0.02900
C937        C  0.19490439  0.39202245  0.10761607    -0.09500
C938        C  0.16781884  0.41046884  0.08654513     0.06600
C939        C  0.15310664  0.39279410  0.05574338    -0.03300
C940        C  0.16433788  0.35714956  0.04720151    -0.07800
C941        C  0.19150571  0.33790790  0.06791729     0.05800
C942        C  0.20709149  0.35616699  0.09842707    -0.02800
Br943      Br  0.24310847  0.33337720  0.12975343    -0.02500
H944        H  0.20589531  0.40527215  0.13192747     0.09700
H945        H  0.15202707  0.34493253  0.02300352     0.07700
Br946      Br  0.11746981  0.41555693  0.02390028    -0.02900
C947        C  0.03851100  0.46404632  0.17392608    -0.09500
C948        C  0.05920555  0.47367941  0.14145786     0.06600
C949        C  0.03839896  0.48502728  0.11052321    -0.03300
C950        C  0.00050234  0.49171826  0.11347453    -0.07800
C951        C  0.97899194  0.47964505  0.14356959     0.05800
C952        C  0.99870078  0.46578818  0.17478306    -0.02800
Br953      Br  0.97361335  0.45324007  0.22031939    -0.02500
H954        H  0.05312290  0.45501558  0.19842074     0.09700
H955        H  0.98735529  0.50594202  0.09108734     0.07700
Br956      Br  0.05887773  0.49169008  0.06206421    -0.02900
C957        C  0.07126291  0.55310453  0.86679042    -0.09500
C958        C  0.10361048  0.53620218  0.85385375     0.06600
C959        C  0.12531181  0.55454617  0.82622293    -0.03300
C960        C  0.11558845  0.59043565  0.81393081    -0.07800
C961        C  0.08561410  0.60935039  0.83058972     0.05800
C962        C  0.06365462  0.58981317  0.85791652    -0.02800
Br963      Br  0.02405812  0.61049678  0.88773638    -0.02500
H964        H  0.05477893  0.53962762  0.88844755     0.09700
H965        H  0.13263949  0.60422270  0.79293618     0.07700
Br966      Br  0.16896957  0.53174353  0.80568263    -0.02900
C967        C  0.13941728  0.57465927  0.91750758    -0.09500
C968        C  0.16370742  0.54596416  0.90849588     0.06600
C969        C  0.20229045  0.55385024  0.90813329    -0.03300
C970        C  0.21515696  0.58928547  0.91832280    -0.07800
C971        C  0.18989570  0.61748234  0.92804594     0.05800
C972        C  0.15153205  0.60977628  0.92576299    -0.02800
Br973      Br  0.11237382  0.64505720  0.93296159    -0.02500
H974        H  0.11010390  0.57005676  0.91922888     0.09700
H975        H  0.24476433  0.59448077  0.91937348     0.07700
Br976      Br  0.23818366  0.51768758  0.89295221    -0.02900
C977        C  0.10340518  0.39805302  0.82928363    -0.09500
C978        C  0.10948033  0.40019507  0.86795413     0.06600
C979        C  0.10923608  0.36674392  0.88853626    -0.03300
C980        C  0.10747114  0.33291500  0.87040027    -0.07800
C981        C  0.10027597  0.33069473  0.83220548     0.05800
C982        C  0.09752748  0.36391618  0.81172077    -0.02800
Br983      Br  0.08218399  0.36426312  0.76104116    -0.02500
H984        H  0.10312821  0.42308350  0.81254876     0.09700
H985        H  0.10771852  0.30783543  0.88720278     0.07700
Br986      Br  0.10573933  0.36439589  0.94157429    -0.02900
C987        C  0.18913332  0.39725451  0.94775467    -0.09500
C988        C  0.17874709  0.41022160  0.91258926     0.06600
C989        C  0.19281635  0.39041879  0.88142135    -0.03300
C990        C  0.20642343  0.35400124  0.88625752    -0.07800
C991        C  0.21308461  0.34049389  0.92218064     0.05800
C992        C  0.21033835  0.36530247  0.95146918    -0.02800
Br993      Br  0.24002552  0.35808074  0.99428690    -0.02500
H994        H  0.17929568  0.40996688  0.97271400     0.09700
H995        H  0.21143445  0.33660195  0.86243021     0.07700
Br996      Br  0.19490836  0.41231554  0.83268572    -0.02900
C997        C  0.19832213  0.47318604  0.98366025    -0.09500
C998        C  0.16559399  0.48417148  0.96487321     0.06600
C999        C  0.13839986  0.50219090  0.98719044    -0.03300
C1000       C  0.14267313  0.50573137  0.02547683    -0.07800
C1001       C  0.17011402  0.48700068  0.04519254     0.05800
C1002       C  0.19976418  0.47228894  0.02340739    -0.02800
Br1003     Br  0.24313673  0.45246770  0.04625768    -0.02500
H1004       H  0.22159680  0.46241369  0.96773677     0.09700
H1005       H  0.12192599  0.52091385  0.04045625     0.07700
Br1006     Br  0.09131113  0.51898899  0.96992869    -0.02900
C1007       C  0.99343599  0.46932491  0.89288848    -0.09500
C1008       C  0.97740733  0.47411063  0.85795660     0.06600
C1009       C  0.00179151  0.47338950  0.82659223    -0.03300
C1010       C  0.04110966  0.47233189  0.83127106    -0.07800
C1011       C  0.05687352  0.46697281  0.86675574     0.05800
C1012       C  0.03157434  0.46270909  0.89700819    -0.02800
Br1013     Br  0.04611438  0.44391055  0.94433272    -0.02500
H1014       H  0.97547165  0.46747196  0.91718648     0.09700
H1015       H  0.05925059  0.47511209  0.80713915     0.07700
Br1016     Br  0.98236544  0.47591618  0.77747454    -0.02900
C1017       C  0.59509537  0.89651446  0.82230835    -0.09500
C1018       C  0.58932858  0.89721861  0.86130821     0.06600
C1019       C  0.62017070  0.90595208  0.88329085    -0.03300
C1020       C  0.65518792  0.91019371  0.86713259    -0.07800
C1021       C  0.66102306  0.91050801  0.82845080     0.05800
C1022       C  0.63014908  0.90464907  0.80578194    -0.02800
Br1023     Br  0.63389905  0.90990086  0.75290251    -0.02500
H1024       H  0.57253828  0.88847042  0.80460962     0.09700
H1025       H  0.67820984  0.91515450  0.88547021     0.07700
Br1026     Br  0.61797209  0.91390205  0.93567428    -0.02900
C1027       C  0.60321817  0.82502054  0.94796485    -0.09500
C1028       C  0.59154898  0.83047404  0.91121607     0.06600
C1029       C  0.61487667  0.81506492  0.88289414    -0.03300
C1030       C  0.65068626  0.80113113  0.89139651    -0.07800
C1031       C  0.66161329  0.79723572  0.92846582     0.05800
C1032       C  0.63528310  0.80541604  0.95614608    -0.02800
Br1033     Br  0.63935616  0.78507755  0.00478482    -0.02500
H1034       H  0.58853974  0.83639470  0.97129785     0.09700
H1035       H  0.66954312  0.79297748  0.86923570     0.07700
Br1036     Br  0.59827771  0.80873800  0.83318250    -0.02900
C1037       C  0.44789168  0.89643501  0.82216934    -0.09500
C1038       C  0.44844945  0.88858358  0.86087810     0.06600
C1039       C  0.41358555  0.88787580  0.87993135    -0.03300
C1040       C  0.38065613  0.89086987  0.86066778    -0.07800
C1041       C  0.38001943  0.90010534  0.82293242     0.05800
C1042       C  0.41416278  0.90313632  0.80346195    -0.02800
Br1043     Br  0.41581061  0.91813706  0.75231787    -0.02500
H1044       H  0.47376286  0.89747877  0.80640536     0.09700
H1045       H  0.35468745  0.88976182  0.87642378     0.07700
Br1046     Br  0.40615732  0.88736217  0.93248926    -0.02900
C1047       C  0.44355140  0.80986859  0.94703652    -0.09500
C1048       C  0.45505382  0.81995580  0.91065124     0.06600
C1049       C  0.43321141  0.80579038  0.88133538    -0.03300
C1050       C  0.39698829  0.79217417  0.88897583    -0.07800
C1051       C  0.38502937  0.78632276  0.92579489     0.05800
C1052       C  0.41114624  0.78978517  0.95370878    -0.02800
Br1053     Br  0.40528901  0.76369569  0.99976816    -0.02500
H1054       H  0.45694721  0.81971325  0.97128223     0.09700
H1055       H  0.37836828  0.78653683  0.86642717     0.07700
Br1056     Br  0.45143112  0.80328733  0.83114958    -0.02900
C1057       C  0.60490858  0.85505326  0.17822506    -0.09500
C1058       C  0.58761228  0.88269545  0.15647839     0.06600
C1059       C  0.60202990  0.91898697  0.15859124    -0.03300
C1060       C  0.62754724  0.92766630  0.18540044    -0.07800
C1061       C  0.65022431  0.89981104  0.19956208     0.05800
C1062       C  0.63798808  0.86281944  0.19720832    -0.02800
Br1063     Br  0.66663757  0.82234991  0.21591673    -0.02500
H1064       H  0.59448339  0.82696392  0.17805232     0.09700
H1065       H  0.63698571  0.95617851  0.18673029     0.07700
Br1066     Br  0.60876790  0.95074720  0.11661799    -0.02900
C1067       C  0.60502717  0.79742275  0.10863138    -0.09500
C1068       C  0.59244952  0.83120943  0.09365168     0.06600
C1069       C  0.61762547  0.85398401  0.07422319    -0.03300
C1070       C  0.65490386  0.84477983  0.07274139    -0.07800
C1071       C  0.66777740  0.80983856  0.08497282     0.05800
C1072       C  0.64229725  0.78625596  0.10402136    -0.02800
Br1073     Br  0.65610444  0.73910186  0.12437490    -0.02500
H1074       H  0.58589074  0.77999309  0.12444654     0.09700
H1075       H  0.67316103  0.86401076  0.05808355     0.07700
Br1076     Br  0.60246660  0.89503030  0.04412800    -0.02900
C1077       C  0.42970532  0.90438334  0.12369326    -0.09500
C1078       C  0.45064628  0.88282857  0.14758172     0.06600
C1079       C  0.43473569  0.87042444  0.18147162    -0.03300
C1080       C  0.39809039  0.88042976  0.19104402    -0.07800
C1081       C  0.37648231  0.90129134  0.16626583     0.05800
C1082       C  0.39259542  0.91165735  0.13120940    -0.02800
Br1083     Br  0.36662501  0.93445254  0.09033925    -0.02500
H1084       H  0.44188316  0.91354351  0.09752464     0.09700
H1085       H  0.38661284  0.87192242  0.21777257     0.07700
Br1086     Br  0.46210709  0.83999199  0.21519867    -0.02900
C1087       C  0.43476860  0.84665787  0.06395345    -0.09500
C1088       C  0.45296021  0.82671257  0.09139865     0.06600
C1089       C  0.43455542  0.79632834  0.10835383    -0.03300
C1090       C  0.39779804  0.78735570  0.09859450    -0.07800
C1091       C  0.37851509  0.80888195  0.07232805     0.05800
C1092       C  0.39799881  0.83934514  0.05534243    -0.02800
Br1093     Br  0.37787337  0.87401698  0.02017692    -0.02500
H1094       H  0.44854804  0.87008367  0.05075447     0.09700
H1095       H  0.38446687  0.76347206  0.11143369     0.07700
Br1096     Br  0.45936098  0.76596476  0.14403699    -0.02900
C1097       C  0.52303674  0.80169792  0.98387186    -0.09500
C1098       C  0.52199492  0.83626143  0.96466734     0.06600
C1099       C  0.52209877  0.86829978  0.98675357    -0.03300
C1100       C  0.52029648  0.86604161  0.02532401    -0.07800
C1101       C  0.52253382  0.83255226  0.04472004     0.05800
C1102       C  0.52337748  0.79981534  0.02350811    -0.02800
Br1103     Br  0.52412789  0.75252413  0.04763584    -0.02500
H1104       H  0.52338495  0.77636843  0.96811769     0.09700
H1105       H  0.51860851  0.89139027  0.04053844     0.07700
Br1106     Br  0.53111001  0.91659180  0.96760448    -0.02900
C1107       C  0.64609849  0.02381059  0.84687563    -0.09500
C1108       C  0.66524546  0.04526358  0.81988166     0.06600
C1109       C  0.64692681  0.07552842  0.80349371    -0.03300
C1110       C  0.61119564  0.08525589  0.81643049    -0.07800
C1111       C  0.59329383  0.06497596  0.84523731     0.05800
C1112       C  0.61095208  0.03337762  0.85985000    -0.02800
Br1113     Br  0.59150564  0.00404304  0.90051171    -0.02500
H1114       H  0.65926423  0.99989836  0.85940031     0.09700
H1115       H  0.59779785  0.10951778  0.80489947     0.07700
Br1116     Br  0.67010989  0.10570122  0.76559218    -0.02900
C1117       C  0.64619717  0.16891861  0.90125577    -0.09500
C1118       C  0.66916256  0.14304721  0.91921773     0.06600
C1119       C  0.65514924  0.10675425  0.92557132    -0.03300
C1120       C  0.61851598  0.09864290  0.91796842    -0.07800
C1121       C  0.59570284  0.12369959  0.89988710     0.05800
C1122       C  0.61005975  0.15900066  0.89045010    -0.02800
Br1123     Br  0.58209206  0.19364708  0.86160777    -0.02500
H1124       H  0.65623153  0.19671186  0.89564000     0.09700
H1125       H  0.60785277  0.07177245  0.92550182     0.07700
Br1126     Br  0.68393435  0.06509741  0.94245409    -0.02900
C1127       C  0.43169908  0.05287840  0.86918747    -0.09500
C1128       C  0.45552108  0.07170303  0.84485888     0.06600
C1129       C  0.44465441  0.07768012  0.80791417    -0.03300
C1130       C  0.40933482  0.06593656  0.79660998    -0.07800
C1131       C  0.38472719  0.04838546  0.82201813     0.05800
C1132       C  0.39664645  0.04225887  0.85908046    -0.02800
Br1133     Br  0.36799878  0.02074480  0.89979516    -0.02500
H1134       H  0.43999925  0.04672114  0.89708773     0.09700
H1135       H  0.40129452  0.07029547  0.76806966     0.07700
Br1136     Br  0.47713612  0.10159835  0.77245563    -0.02900
C1137       C  0.40052621  0.16814978  0.89433470    -0.09500
C1138       C  0.38126911  0.14804435  0.92260260     0.06600
C1139       C  0.40067829  0.11877656  0.94052154    -0.03300
C1140       C  0.43680605  0.11027240  0.92987663    -0.07800
C1141       C  0.45553805  0.12889848  0.90103715     0.05800
C1142       C  0.43717175  0.15839128  0.88329390    -0.02800
Br1143     Br  0.46119075  0.18460546  0.84304903    -0.02500
H1144       H  0.38684764  0.19076061  0.88013355     0.09700
H1145       H  0.44877619  0.08622208  0.94253585     0.07700
Br1146     Br  0.38115763  0.08642015  0.97915251    -0.02900
C1147       C  0.53065247  0.95795278  0.82906955    -0.09500
C1148       C  0.51499970  0.94167087  0.86186226     0.06600
C1149       C  0.49808256  0.96699129  0.88689110    -0.03300
C1150       C  0.50322576  0.00503596  0.88295784    -0.07800
C1151       C  0.51984920  0.02138834  0.85162561     0.05800
C1152       C  0.53251590  0.99710469  0.82350261    -0.02800
Br1153     Br  0.55150979  0.01561289  0.77699617    -0.02500
H1154       H  0.54020589  0.94055884  0.80685422     0.09700
H1155       H  0.49417675  0.02240502  0.90548038     0.07700
Br1156     Br  0.46387032  0.95527094  0.92593293    -0.02900
C1157       C  0.59194176  0.06815988  0.17200758    -0.09500
C1158       C  0.59122647  0.06514547  0.13281796     0.06600
C1159       C  0.62540642  0.05786255  0.11451563    -0.03300
C1160       C  0.65843768  0.05742433  0.13384682    -0.07800
C1161       C  0.65887849  0.05565382  0.17267208     0.05800
C1162       C  0.62508873  0.06204022  0.19204537    -0.02800
Br1163     Br  0.62255332  0.06125930  0.24510408    -0.02500
H1164       H  0.56638732  0.07390210  0.18717304     0.09700
H1165       H  0.68391042  0.05206498  0.11828210     0.07700
Br1166     Br  0.63023963  0.03678838  0.06664501    -0.02900
C1167       C  0.60107133  0.14734572  0.10182085    -0.09500
C1168       C  0.58556733  0.12431432  0.07454169     0.06600
C1169       C  0.60412751  0.12207934  0.03990572    -0.03300
C1170       C  0.63651174  0.14211527  0.03313702    -0.07800
C1171       C  0.65446972  0.16108460  0.06149014     0.05800
C1172       C  0.63582253  0.16489717  0.09589723    -0.02800
Br1173     Br  0.65798226  0.19059714  0.13613904    -0.02500
H1174       H  0.58738328  0.14952376  0.12871605     0.09700
H1175       H  0.65037890  0.13892617  0.00642804     0.07700
Br1176     Br  0.59276435  0.08642707  0.00306372    -0.02900
C1177       C  0.43830765  0.07981993  0.16546972    -0.09500
C1178       C  0.45432400  0.05591566  0.13890407     0.06600
C1179       C  0.43597982  0.02229016  0.13180471    -0.03300
C1180       C  0.40389744  0.01283741  0.15155610    -0.07800
C1181       C  0.38551307  0.03814019  0.17466357     0.05800
C1182       C  0.40357704  0.07169554  0.18252715    -0.02800
Br1183     Br  0.38040298  0.10871660  0.21260448    -0.02500
H1184       H  0.45151299  0.10612468  0.17083523     0.09700
H1185       H  0.39064566  0.98692018  0.14522831     0.07700
Br1186     Br  0.44571775  0.99279660  0.08904855    -0.02900
C1187       C  0.41641749  0.09344767  0.07717306    -0.09500
C1188       C  0.44758773  0.11594662  0.08157932     0.06600
C1189       C  0.44185491  0.15483521  0.08166702    -0.03300
C1190       C  0.40608677  0.16972118  0.07509854    -0.07800
C1191       C  0.37511048  0.14625683  0.07173981     0.05800
C1192       C  0.38081182  0.10789147  0.07616788    -0.02800
Br1193     Br  0.34098249  0.07320950  0.08303553    -0.02500
H1194       H  0.41926667  0.06397437  0.07570208     0.09700
H1195       H  0.40263718  0.19937903  0.07234731     0.07700
Br1196     Br  0.48121890  0.18857066  0.09246189    -0.02900
C1197       C  0.52541131  0.94800646  0.10571820    -0.09500
C1198       C  0.51821198  0.93185322  0.14046667     0.06600
C1199       C  0.51259315  0.95580242  0.17085583    -0.03300
C1200       C  0.51504387  0.99485050  0.16564912    -0.07800
C1201       C  0.52463676  0.01061380  0.13063275     0.05800
C1202       C  0.53057301  0.98603802  0.10088519    -0.02800
Br1203     Br  0.54534426  0.00138139  0.05190343    -0.02500
H1204       H  0.53045223  0.93050544  0.08228751     0.09700
H1205       H  0.50935909  0.01287134  0.18886154     0.07700
Br1206     Br  0.50186494  0.93657786  0.21947802    -0.02900
C1207       C  0.51257729  0.09012575  0.96479432    -0.09500
C1208       C  0.52409275  0.12293499  0.94735255     0.06600
C1209       C  0.53070912  0.15373709  0.97065982    -0.03300
C1210       C  0.52714977  0.14987998  0.01003550    -0.07800
C1211       C  0.51380331  0.11670592  0.02684579     0.05800
C1212       C  0.50327563  0.08828249  0.00245674    -0.02800
Br1213     Br  0.47410649  0.04639873  0.01652337    -0.02500
H1214       H  0.50779718  0.06595686  0.94811578     0.09700
H1215       H  0.53530155  0.17260661  0.02744779     0.07700
Br1216     Br  0.54503618  0.20111219  0.95138010    -0.02900
C1217       C  0.91993282  0.84576712  0.64372942    -0.09500
C1218       C  0.94088741  0.81303756  0.64728930     0.06600
C1219       C  0.94972692  0.79302282  0.61561805    -0.03300
C1220       C  0.94148592  0.80736874  0.58085105    -0.07800
C1221       C  0.92390335  0.84175601  0.57572494     0.05800
C1222       C  0.90577964  0.86049272  0.60855418    -0.02800
Br1223     Br  0.83648813  0.93588988  0.60073544    -0.02500
H1224       H  0.91536922  0.85960433  0.66982476     0.09700
H1225       H  0.94913258  0.79096049  0.55725203     0.07700
Br1226     Br  0.97701166  0.74741573  0.61814974    -0.02900
C1227       C  0.84932424  0.87120660  0.57729557    -0.09500
C1228       C  0.88151448  0.89946985  0.56139280     0.06600
C1229       C  0.90536152  0.92374454  0.59015386    -0.03300
C1230       C  0.89640938  0.92053568  0.63379170    -0.07800
C1231       C  0.86322108  0.89378042  0.64988633     0.05800
C1232       C  0.84067213  0.86819581  0.62143246    -0.02800
Br1233     Br  0.80297897  0.83468766  0.63871076    -0.02500
H1234       H  0.83575424  0.85243722  0.55862096     0.09700
H1235       H  0.91173516  0.93807730  0.65219841     0.07700
Br1236     Br  0.94422937  0.95606717  0.57399355    -0.02900
C1237       C  0.90644176  0.88970770  0.39474786    -0.09500
C1238       C  0.88441057  0.88599906  0.42658030     0.06600
C1239       C  0.84533914  0.88533064  0.42268109    -0.03300
C1240       C  0.82980924  0.89114721  0.38742649    -0.07800
C1241       C  0.85299919  0.89561719  0.35589034     0.05800
C1242       C  0.89161394  0.89194029  0.35997532    -0.02800
Br1243     Br  0.92682676  0.88994336  0.31965446    -0.02500
H1244       H  0.93587710  0.89092543  0.39652152     0.09700
H1245       H  0.79995054  0.89340563  0.38490740     0.07700
Br1246     Br  0.81234494  0.87612200  0.46408293    -0.02900
C1247       C  0.91438159  0.80270251  0.41850889    -0.09500
C1248       C  0.94070477  0.82673996  0.43441979     0.06600
C1249       C  0.97420507  0.83320356  0.41398340    -0.03300
C1250       C  0.98155754  0.81414172  0.38153978    -0.07800
C1251       C  0.95355332  0.79519768  0.36302592     0.05800
C1252       C  0.91978994  0.78842622  0.38234800    -0.02800
Br1253     Br  0.87914522  0.76404451  0.35925969    -0.02500
H1254       H  0.88787912  0.79827339  0.43257081     0.09700
H1255       H  0.00793874  0.81939881  0.36748520     0.07700
Br1256     Br  0.00420025  0.87678383  0.41620936    -0.02900
C1257       C  0.95516174  0.10913522  0.58737665    -0.09500
C1258       C  0.92875525  0.12878407  0.56751197     0.06600
C1259       C  0.91493984  0.16208015  0.58269840    -0.03300
C1260       C  0.92664939  0.17393035  0.61793840    -0.07800
C1261       C  0.95271099  0.15326888  0.63823918     0.05800
C1262       C  0.96792220  0.12099822  0.62124424    -0.02800
Br1263     Br  0.00701194  0.09005623  0.64032885    -0.02500
H1264       H  0.96590459  0.08345056  0.57691755     0.09700
H1265       H  0.91495889  0.19892377  0.62959760     0.07700
Br1266     Br  0.87988144  0.19193221  0.55660546    -0.02900
C1267       C  0.83400012  0.06947856  0.62165811    -0.09500
C1268       C  0.85834367  0.04618877  0.64128864     0.06600
C1269       C  0.89241096  0.03617440  0.62375069    -0.03300
C1270       C  0.89893874  0.04490129  0.58645734    -0.07800
C1271       C  0.87531674  0.06860547  0.56726233     0.05800
C1272       C  0.84302807  0.08184167  0.58544504    -0.02800
Br1273     Br  0.81053140  0.11641676  0.56164882    -0.02500
H1274       H  0.80819433  0.07847849  0.63453652     0.09700
H1275       H  0.92451966  0.03593185  0.57318509     0.07700
Br1276     Br  0.93428544  0.01662382  0.65007290    -0.02900
C1277       C  0.97212398  0.13037001  0.37466810    -0.09500
C1278       C  0.94885299  0.15575358  0.35644842     0.06600
C1279       C  0.91762784  0.16963434  0.37565245    -0.03300
C1280       C  0.90974273  0.15692109  0.41193464    -0.07800
C1281       C  0.93215328  0.12991026  0.42899897     0.05800
C1282       C  0.96350802  0.11649382  0.40976777    -0.02800
Br1283     Br  0.99199179  0.07486100  0.42637941    -0.02500
H1284       H  0.99628325  0.11933171  0.36048842     0.09700
H1285       H  0.88492462  0.16662967  0.42618978     0.07700
Br1286     Br  0.88320557  0.20265886  0.35256163    -0.02900
C1287       C  0.89749134  0.05592485  0.40196335    -0.09500
C1288       C  0.87380637  0.07415071  0.42672434     0.06600
C1289       C  0.83767194  0.08289583  0.41445955    -0.03300
C1290       C  0.82589500  0.07196388  0.37876797    -0.07800
C1291       C  0.85027442  0.05350251  0.35402074     0.05800
C1292       C  0.88722154  0.04717362  0.36609533    -0.02800
Br1293     Br  0.92748256  0.02850573  0.33565040    -0.02500
H1294       H  0.92504346  0.04884303  0.41015241     0.09700
H1295       H  0.79767534  0.07776710  0.37053815     0.07700
Br1296     Br  0.80419073  0.11081558  0.44501238    -0.02900
C1297       C  0.91004412  0.00772966  0.47694592    -0.09500
C1298       C  0.87964601  0.02424857  0.49493055     0.06600
C1299       C  0.85155372  0.00009818  0.50904920    -0.03300
C1300       C  0.85591177  0.96107556  0.50670325    -0.07800
C1301       C  0.88668244  0.94476460  0.48826195     0.05800
C1302       C  0.91205579  0.96973287  0.47047167    -0.02800
Br1303     Br  0.94858073  0.95721426  0.43359934    -0.02500
H1304       H  0.93258058  0.02501774  0.46669325     0.09700
H1305       H  0.83471982  0.94331368  0.51893517     0.07700
Br1306     Br  0.80619992  0.01799806  0.53044410    -0.02900
C1307       C  0.19916105  0.08647895  0.58022168    -0.09500
C1308       C  0.17172381  0.06264785  0.56599772     0.06600
C1309       C  0.16340504  0.02981342  0.58625915    -0.03300
C1310       C  0.18231037  0.02133181  0.61820104    -0.07800
C1311       C  0.20580069  0.04680326  0.63487682     0.05800
C1312       C  0.21584377  0.07907326  0.61481314    -0.02800
Br1313     Br  0.25053219  0.11396437  0.63391153    -0.02500
H1314       H  0.20622400  0.11177076  0.56529897     0.09700
H1315       H  0.17515807  0.99571891  0.63257189     0.07700
Br1316     Br  0.12104557  0.99879219  0.58062625    -0.02900
C1317       C  0.10359627  0.09582488  0.59998057    -0.09500
C1318       C  0.11207769  0.11924262  0.57019218     0.06600
C1319       C  0.11515338  0.15765771  0.57739401    -0.03300
C1320       C  0.10820666  0.17122301  0.61365613    -0.07800
C1321       C  0.10138382  0.14653421  0.64352676     0.05800
C1322       C  0.10245972  0.10831847  0.63611035    -0.02800
Br1323     Br  0.10470900  0.07083799  0.67390556    -0.02500
H1324       H  0.09947975  0.06695834  0.59543283     0.09700
H1325       H  0.10775134  0.20077200  0.61832321     0.07700
Br1326     Br  0.12931268  0.19232678  0.53926029    -0.02900
C1327       C  0.08088303  0.09788382  0.40997240    -0.09500
C1328       C  0.10458915  0.11893329  0.43114698     0.06600
C1329       C  0.11994201  0.15146665  0.41515196    -0.03300
C1330       C  0.11024197  0.16269996  0.37886381    -0.07800
C1331       C  0.08781844  0.14006034  0.35677166     0.05800
C1332       C  0.07522858  0.10586038  0.37259430    -0.02800
Br1333     Br  0.05511221  0.06530910  0.34472598    -0.02500
H1334       H  0.06927259  0.07302014  0.42200416     0.09700
H1335       H  0.12110295  0.18851726  0.36765698     0.07700
Br1336     Br  0.15559318  0.18003713  0.44129229    -0.02900
C1337       C  0.19331706  0.08478010  0.41213933    -0.09500
C1338       C  0.16297994  0.06438532  0.42716762     0.06600
C1339       C  0.14472623  0.03935618  0.40393700    -0.03300
C1340       C  0.15593418  0.03603612  0.36721614    -0.07800
C1341       C  0.18689912  0.05520181  0.35193825     0.05800
C1342       C  0.20552897  0.08025526  0.37494595    -0.02800
Br1343     Br  0.24553163  0.11065873  0.35653807    -0.02500
H1344       H  0.20693906  0.10505535  0.42917019     0.09700
H1345       H  0.14079664  0.01616345  0.35100878     0.07700
Br1346     Br  0.10359136  0.00832472  0.41825523    -0.02900
C1347       C  0.04190045  0.14894843  0.49017770    -0.09500
C1348       C  0.05910767  0.11623115  0.50345628     0.06600
C1349       C  0.03495768  0.08718839  0.51505618    -0.03300
C1350       C  0.99636786  0.09035481  0.51254742    -0.07800
C1351       C  0.97888622  0.12274593  0.50035922     0.05800
C1352       C  0.00236125  0.15252116  0.48903472    -0.02800
Br1353     Br  0.98186896  0.19807487  0.47138893    -0.02500
H1354       H  0.05918285  0.17167666  0.48035296     0.09700
H1355       H  0.97944924  0.06620296  0.51899818     0.07700
Br1356     Br  0.05133660  0.04033038  0.53242151    -0.02900
C1357       C  0.06510596  0.81289838  0.61707304    -0.09500
C1358       C  0.09069575  0.79097036  0.63615452     0.06600
C1359       C  0.12577382  0.78466675  0.61959750    -0.03300
C1360       C  0.13445456  0.80096002  0.58471451    -0.07800
C1361       C  0.10980353  0.82602728  0.56750437     0.05800
C1362       C  0.07535082  0.83298204  0.58562800    -0.02800
Br1363     Br  0.04437984  0.87512297  0.57769901    -0.02500
H1364       H  0.03810613  0.81851752  0.62963777     0.09700
H1365       H  0.16154396  0.79605506  0.57216761     0.07700
Br1366     Br  0.16370433  0.75808139  0.64524989    -0.02900
C1367       C  0.14093896  0.89947173  0.59592924    -0.09500
C1368       C  0.16587039  0.88523109  0.57000565     0.06600
C1369       C  0.20339765  0.88066962  0.57990884    -0.03300
C1370       C  0.21500760  0.89062718  0.61564299    -0.07800
C1371       C  0.18923072  0.90394928  0.64211278     0.05800
C1372       C  0.15139115  0.90675582  0.63188062    -0.02800
Br1373     Br  0.11081035  0.91806373  0.66514041    -0.02500
H1374       H  0.11258225  0.90425090  0.58834404     0.09700
H1375       H  0.24411535  0.88844359  0.62249227     0.07700
Br1376     Br  0.23930583  0.86070345  0.54575300    -0.02900
C1377       C  0.10827194  0.79702549  0.42330520    -0.09500
C1378       C  0.11052726  0.83556274  0.42851629     0.06600
C1379       C  0.10218462  0.85910918  0.39839718    -0.04500
C1380       C  0.09557749  0.84424780  0.36364222    -0.07800
C1381       C  0.09377472  0.80572004  0.35793764     0.05800
C1382       C  0.10010330  0.78198698  0.38853859    -0.02800
Br1383     Br  0.09707662  0.72923762  0.38537586    -0.02500
H1384       H  0.11412838  0.77843592  0.44622693     0.09700
H1385       H  0.09009890  0.86339863  0.34104086     0.07700
Br1386     Br  0.09599544  0.91156950  0.40299322    -0.02900
C1387       C  0.18370148  0.92294232  0.42103956    -0.09500
C1388       C  0.17670020  0.88590607  0.43146235     0.06600
C1389       C  0.18968879  0.85833076  0.40643059    -0.03300
C1390       C  0.19944810  0.86804359  0.36947011    -0.07800
C1391       C  0.20241452  0.90541736  0.35898074     0.05800
C1392       C  0.19968292  0.93194552  0.38679031    -0.02800
Br1393     Br  0.22356651  0.97882551  0.38128734    -0.02500
H1394       H  0.17553444  0.94588855  0.43772641     0.09700
H1395       H  0.20517083  0.84664427  0.34936797     0.07700
Br1396     Br  0.19782534  0.80809931  0.42200476    -0.02900
C1397       C  0.19872924  0.95551235  0.50417428    -0.09500
C1398       C  0.16467678  0.93552502  0.50357531     0.06600
C1399       C  0.13208069  0.95686580  0.50212079    -0.03300
C1400       C  0.13314943  0.99484315  0.49650255    -0.07800
C1401       C  0.16572220  0.01523156  0.49703825     0.05800
C1402       C  0.19924006  0.99519892  0.50197232    -0.02800
Br1403     Br  0.24552603  0.02075975  0.50529040    -0.02500
H1404       H  0.22464479  0.94049672  0.50595130     0.09700
H1405       H  0.10721736  0.00941951  0.49492931     0.07700
Br1406     Br  0.08478396  0.93914825  0.51697863    -0.02900
C1407       C  0.04418995  0.86452820  0.49040662    -0.09500
C1408       C  0.06387878  0.83241606  0.49717088     0.06600
C1409       C  0.04292154  0.80016314  0.50598024    -0.03300
C1410       C  0.00322453  0.80193707  0.50723258    -0.07800
C1411       C  0.98462605  0.83659281  0.50590557     0.05800
C1412       C  0.00689938  0.86797635  0.49992676    -0.02800
Br1413     Br  0.98908307  0.91722883  0.50350397    -0.02500
H1414       H  0.05827865  0.88783747  0.47815078     0.09700
H1415       H  0.98739844  0.77656841  0.50989919     0.07700
Br1416     Br  0.06686466  0.75377914  0.51461895    -0.02900
loop_ 
_geom_bond_atom_site_label_1 
_geom_bond_atom_site_label_2 
_geom_bond_distance 
_geom_bond_site_symmetry_2 
_ccdc_geom_bond_type 
C1            C2   1.423       .  A
C1            C6   1.435       .  A
C1         C1361   1.504       .  S
C2            C3   1.427       .  A
C2         C1408   1.512       .  S
C3            C4   1.443       .  A
C3         C1378   1.502       .  S
C4            C5   1.433       .  A
C4         C1388   1.520       .  S
C5            C6   1.419       .  A
C5         C1398   1.526       .  S
C6         C1368   1.487       .  S
C7            C8   1.427       .  A
C7           C12   1.433       .  A
C7         C1338   1.497       .  S
C8            C9   1.427       .  A
C8         C1401   1.519       .  S
C9           C10   1.445       .  A
C9         C1308   1.504       .  S
C10          C11   1.429       .  A
C10        C1318   1.505       .  S
C11          C12   1.423       .  A
C11        C1348   1.532       .  S
C12        C1328   1.497       .  S
C13          C14   1.435       .  A
C13          C18   1.430       .  A
C13        C1271   1.486       .  S
C14          C15   1.421       .  A
C14        C1258   1.503       .  S
C15          C16   1.425       .  A
C15        C1351   1.528       .  S
C16          C17   1.434       .  A
C16        C1281   1.480       .  S
C17          C18   1.428       .  A
C17        C1288   1.516       .  S
C18        C1298   1.525       .  S
C19          C20   1.400       .  A
C19          C24   1.414       .  A
C19        C1228   1.424       .  S
C20          C21   1.446       .  A
C20        C1221   1.552       .  S
C21          C22   1.437       .  A
C21        C1411   1.512       .  S
C22          C23   1.440       .  A
C22        C1248   1.514       .  S
C23          C24   1.417       .  A
C23        C1238   1.491       .  S
C24        C1301   1.533       .  S
C25          C26   1.426       .  A
C25          C30   1.438       .  A
C25        C1188   1.513       .  S
C26          C27   1.437       .  A
C26        C1211   1.525       .  S
C27          C28   1.440       .  A
C27        C1168   1.502       .  S
C28          C29   1.425       .  A
C28        C1158   1.518       .  S
C29          C30   1.424       .  A
C29        C1201   1.513       .  S
C30        C1178   1.502       .  S
C31          C32   1.427       .  A
C31          C36   1.435       .  A
C31        C1141   1.505       .  S
C32          C33   1.424       .  A
C32        C1208   1.522       .  S
C33          C34   1.437       .  A
C33        C1121   1.489       .  S
C34          C35   1.414       .  A
C34        C1111   1.488       .  S
C35          C36   1.420       .  A
C35        C1151   1.526       .  S
C36        C1128   1.483       .  S
C37          C38   1.417       .  A
C37          C42   1.431       .  A
C37        C1078   1.479       .  S
C38          C39   1.416       .  A
C38        C1198   1.511       .  S
C39          C40   1.433       .  A
C39        C1058   1.509       .  S
C40          C41   1.428       .  A
C40        C1068   1.478       .  S
C41          C42   1.418       .  A
C41        C1101   1.519       .  S
C42        C1088   1.496       .  S
C43          C44   1.444       .  A
C43          C48   1.451       .  A
C43        C1038   1.524       .  S
C44          C45   1.453       .  A
C44        C1148   1.545       .  S
C45          C46   1.447       .  A
C45        C1018   1.510       .  S
C46          C47   1.427       .  A
C46        C1028   1.534       .  S
C47          C48   1.432       .  A
C47        C1098   1.524       .  S
C48        C1048   1.526       .  S
C49          C50   1.426       .  A
C49          C54   1.451       .  A
C49         C978   1.513       .  S
C50          C51   1.427       .  A
C50        C1011   1.535       .  S
C51          C52   1.443       .  A
C51         C958   1.494       .  S
C52          C53   1.425       .  A
C52         C968   1.510       .  S
C53          C54   1.440       .  A
C53         C998   1.545       .  S
C54         C988   1.514       .  S
C55          C56   1.431       .  A
C55          C60   1.443       .  A
C55         C918   1.503       .  S
C56          C57   1.433       .  A
C56        C1001   1.539       .  S
C57          C58   1.434       .  A
C57         C938   1.482       .  S
C58          C59   1.410       .  A
C58         C931   1.496       .  S
C59          C60   1.424       .  A
C59         C948   1.530       .  S
C60         C908   1.494       .  S
C61          C62   1.432       .  A
C61          C66   1.447       .  A
C61         C858   1.504       .  S
C62          C63   1.425       .  A
C62         C951   1.531       .  S
C63          C64   1.433       .  A
C63         C878   1.481       .  S
C64          C65   1.412       .  A
C64         C888   1.494       .  S
C65          C66   1.429       .  A
C65         C898   1.527       .  S
C66         C871   1.521       .  S
C67          C68   1.428       .  A
C67          C72   1.445       .  A
C67         C821   1.526       .  S
C68          C69   1.416       .  A
C68        C1008   1.526       .  S
C69          C70   1.430       .  A
C69         C838   1.488       .  S
C70          C71   1.429       .  A
C70         C851   1.498       .  S
C71          C72   1.437       .  A
C71         C901   1.526       .  S
C72         C828   1.499       .  S
O73         Zr85   2.511       .  S
O73          C75   1.301       .  A
O74        Zr111   2.370       .  S
O74          C75   1.277       .  A
C75        C1371   1.489       .  S
O76         Zr88   2.432       .  S
O76          C78   1.280       .  A
O77        Zr112   2.430       .  S
O77          C78   1.278       .  A
C78         C290   1.467       .  S
O79         Zr88   2.417       .  S
O79          C81   1.277       .  A
O80        Zr111   2.468       .  S
O80          C81   1.285       .  A
C81         C633   1.476       .  S
O82         Zr85   2.514       .  S
O82          C84   1.300       .  A
O83        Zr112   2.357       .  S
O83          C84   1.277       .  A
C84        C1041   1.485       .  S
Zr85         O86   2.435       .  S
Zr85         O87   2.438       .  S
Zr85         O91   2.388       .  S
Zr85         O92   2.387       .  S
Zr85        O115   2.374       .  S
Zr85        O117   2.373       .  S
O86         H129   0.990       .  S
O87         H128   0.990       .  S
O87         H132   0.990       .  S
Zr88         O89   2.433       .  S
Zr88         O90   2.426       .  S
Zr88         O92   2.373       .  S
Zr88         O91   2.370       .  S
Zr88        O116   2.375       .  S
Zr88        O118   2.355       .  S
O89         H130   0.990       .  S
O89         H133   0.989       .  S
O90         H123   0.990       .  S
O91        Zr111   2.388       .  S
O92        Zr112   2.398       .  S
O92         H119   0.965       .  S
O93        Zr105   2.484       .  S
O93          C95   1.295       .  A
O94        Zr112   2.344   1_545  S
O94          C95   1.268       .  A
C95        C1131   1.481       .  S
O96        Zr108   2.400       .  S
O96          C98   1.280       .  A
O97        Zr111   2.456   1_545  S
O97          C98   1.288       .  A
C98         C143   1.470       .  S
O99        Zr108   2.417       .  S
O99         C101   1.275       .  A
O100       Zr112   2.472   1_545  S
O100        C101   1.284       .  A
C101        C470   1.485       .  S
O102       Zr105   2.476       .  S
O102        C104   1.292       .  A
O103       Zr111   2.394   1_545  S
O103        C104   1.285       .  A
C104       C1311   1.486       .  S
Zr105       O106   2.435       .  S
Zr105       O107   2.433       .  S
Zr105       O113   2.383       .  S
Zr105       O114   2.390       .  S
Zr105       O117   2.381   1_545  S
Zr105       O115   2.373   1_545  S
O106        H126   0.990       .  S
O106        H131   0.990       .  S
O107        H127   0.990       .  S
Zr108       O109   2.434       .  S
Zr108       O110   2.415       .  S
Zr108       O114   2.365       .  S
Zr108       O113   2.355       .  S
Zr108       O118   2.360   1_545  S
Zr108       O116   2.359   1_545  S
O109        H125   0.990       .  S
O110        H124   0.990       .  S
O110        H134   0.986       .  S
Zr111       O114   2.386   1_565  S
Zr111       O116   2.364       .  S
Zr111       O117   2.407       .  S
Zr112       O113   2.388   1_565  S
Zr112       O115   2.393       .  S
Zr112       O118   2.362       .  S
O113        H121   0.965       .  S
O116        H120   0.964       .  S
O117        H122   0.964       .  S
O135       Zr147   2.508       .  S
O135        C137   1.300       .  A
O136       Zr173   2.384       .  S
O136        C137   1.280       .  A
C137       C1321   1.491       .  S
O138       Zr150   2.405       .  S
O138        C140   1.282       .  A
O139       Zr174   2.455       .  S
O139        C140   1.290       .  A
C140        C473   1.467       .  S
O141       Zr150   2.401       .  S
O141        C143   1.274       .  A
O142       Zr173   2.465       .  S
O142        C143   1.286       .  A
O144       Zr147   2.518       .  S
O144        C146   1.302       .  A
O145       Zr174   2.348       .  S
O145        C146   1.274       .  A
C146        C981   1.487       .  S
Zr147       O148   2.434       .  S
Zr147       O149   2.434       .  S
Zr147       O153   2.392       .  S
Zr147       O154   2.380       .  S
Zr147       O177   2.371       .  S
Zr147       O179   2.379       .  S
O148        H191   0.990       .  S
O149        H190   0.990       .  S
O149        H194   0.990       .  S
Zr150       O151   2.430       .  S
Zr150       O152   2.429       .  S
Zr150       O154   2.363       .  S
Zr150       O153   2.354       .  S
Zr150       O178   2.365       .  S
Zr150       O180   2.355       .  S
O151        H192   0.989       .  S
O151        H195   0.986       .  S
O152        H185   0.990       .  S
O153       Zr173   2.377       .  S
O154       Zr174   2.377       .  S
O154        H181   0.966       .  S
O155       Zr167   2.498       .  S
O155        C157   1.298       .  A
O156       Zr174   2.368   1_655  S
O156        C157   1.273       .  A
C157        C841   1.492       .  S
O158       Zr170   2.404       .  S
O158        C160   1.281       .  A
O159       Zr173   2.453   1_655  S
O159        C160   1.288       .  A
C160        C701   1.466       .  S
O161       Zr170   2.424       .  S
O161        C163   1.276       .  A
O162       Zr174   2.446   1_655  S
O162        C163   1.280       .  A
C163        C591   1.472       .  S
O164       Zr167   2.519       .  S
O164        C166   1.302       .  A
O165       Zr173   2.362   1_655  S
O165        C166   1.271       .  A
C166       C1261   1.500       .  S
Zr167       O168   2.434       .  S
Zr167       O169   2.433       .  S
Zr167       O175   2.394       .  S
Zr167       O176   2.385       .  S
Zr167       O179   2.373   1_655  S
Zr167       O177   2.384   1_655  S
O168        H188   0.990       .  S
O168        H193   0.990       .  S
O169        H189   0.990       .  S
Zr170       O171   2.431       .  S
Zr170       O172   2.414       .  S
Zr170       O176   2.366       .  S
Zr170       O175   2.351       .  S
Zr170       O180   2.355   1_655  S
Zr170       O178   2.349   1_655  S
O171        H187   0.990       .  S
O172        H186   0.990       .  S
O172        H196   0.986       .  S
Zr173       O176   2.384   1_455  S
Zr173       O178   2.358       .  S
Zr173       O179   2.409       .  S
Zr174       O175   2.391   1_455  S
Zr174       O177   2.401       .  S
Zr174       O180   2.349       .  S
O175        H183   0.965       .  S
O178        H182   0.965       .  S
O179        H184   0.965       .  S
O197       Zr209   2.512       .  S
O197        C199   1.301       .  A
O198       Zr235   2.373       .  S
O198        C199   1.280       .  A
C199       C1381   1.493       .  S
O200       Zr212   2.419       .  S
O200        C202   1.276       .  A
O201       Zr236   2.440       .  S
O201        C202   1.279       .  A
C202        C270   1.467       .  S
O203       Zr212   2.402       .  S
O203        C205   1.281       .  A
O204       Zr235   2.461       .  S
O204        C205   1.289       .  A
C205        C385   1.470       .  S
O206       Zr209   2.493       .  S
O206        C208   1.297       .  A
O207       Zr236   2.362       .  S
O207        C208   1.272       .  A
C208        C911   1.490       .  S
Zr209       O210   2.435       .  S
Zr209       O211   2.437       .  S
Zr209       O215   2.387       .  S
Zr209       O216   2.385       .  S
Zr209       O239   2.386       .  S
Zr209       O241   2.365       .  S
O210        H253   0.990       .  S
O211        H252   0.990       .  S
O211        H256   0.990       .  S
Zr212       O213   2.439       .  S
Zr212       O214   2.426       .  S
Zr212       O216   2.354       .  S
Zr212       O215   2.358       .  S
Zr212       O240   2.374       .  S
Zr212       O242   2.259       .  S
O213        H254   0.990       .  S
O213        H257   0.987       .  S
O214        H247   0.990       .  S
O215       Zr235   2.397       .  S
O216       Zr236   2.393       .  S
O216        H243   0.965       .  S
O217       Zr229   2.504       .  S
O217        C219   1.297       .  A
O218       Zr236   2.359   1_655  S
O218        C219   1.275       .  A
C219        C861   1.494       .  S
O220       Zr232   2.426       .  S
O220        C222   1.278       .  A
O221       Zr235   2.469   1_655  S
O221        C222   1.288       .  A
C222        C538   1.484       .  S
O223       Zr232   2.441       .  S
O223        C225   1.280       .  A
O224       Zr236   2.440   1_655  S
O224        C225   1.279       .  A
C225        C760   1.476       .  S
O226       Zr229   2.499       .  S
O226        C228   1.297       .  A
O227       Zr235   2.403   1_655  S
O227        C228   1.286       .  A
C228       C1251   1.496       .  S
Zr229       O230   2.433       .  S
Zr229       O231   2.435       .  S
Zr229       O237   2.390       .  S
Zr229       O238   2.401       .  S
Zr229       O241   2.381   1_655  S
Zr229       O239   2.373   1_655  S
O230        H250   0.990       .  S
O230        H255   0.990       .  S
O231        H251   0.990       .  S
Zr232       O233   2.417       .  S
Zr232       O234   2.440       .  S
Zr232       O238   2.377       .  S
Zr232       O237   2.373       .  S
Zr232       O240   2.377   1_655  S
Zr232       O242   2.258   1_655  S
O233        H249   0.990       .  S
O234        H248   0.988       .  S
O234        H258   0.990       .  S
Zr235       O238   2.383   1_455  S
Zr235       O240   2.379       .  S
Zr235       O241   2.411       .  S
Zr236       O237   2.391   1_455  S
Zr236       O239   2.392       .  S
Zr236       O242   2.254       .  S
O237        H245   0.966       .  S
O240        H244   0.965       .  S
O241        H246   0.965       .  S
O259       Zr271   2.408       .  S
O259        C261   1.274       .  A
O260       Zr297   2.498   1_554  S
O260        C261   1.292       .  A
C261        C394   1.485       .  S
O262       Zr274   2.518       .  S
O262        C264   1.302       .  A
O263       Zr298   2.354       .  S
O263        C264   1.272       .  A
C264        C921   1.496       .  S
O265       Zr274   2.507       .  S
O265        C267   1.300       .  A
O266       Zr297   2.375   1_554  S
O266        C267   1.273       .  A
C267       C1091   1.506       .  S
O268       Zr271   2.405       .  S
O268        C270   1.281       .  A
O269       Zr298   2.447       .  S
O269        C270   1.288       .  A
Zr271       O272   2.424       .  S
Zr271       O273   2.441       .  S
Zr271       O277   2.365       .  S
Zr271       O278   2.373       .  S
Zr271       O301   2.357   1_554  S
Zr271       O303   2.362   1_554  S
O272        H315   0.990       .  S
O273        H314   0.990       .  S
O273        H318   0.990       .  S
Zr274       O275   2.436       .  S
Zr274       O276   2.434       .  S
Zr274       O278   2.383       .  S
Zr274       O277   2.392       .  S
Zr274       O302   2.378   1_554  S
Zr274       O304   2.377       .  S
O275        H316   0.990       .  S
O275        H319   0.990       .  S
O276        H309   0.990       .  S
O277       Zr297   2.385   1_554  S
O278       Zr298   2.383       .  S
O278        H305   0.965       .  S
O279       Zr291   2.438       .  S
O279        C281   1.281       .  A
O280       Zr298   2.441   1_556  S
O280        C281   1.276       .  A
C281        C642   1.476       .  S
O282       Zr294   2.466       .  S
O282        C284   1.291       .  A
O283       Zr297   2.436       .  S
O283        C284   1.291       .  A
C284       C1051   1.480       .  S
O285       Zr294   2.485       .  S
O285        C287   1.295       .  A
O286       Zr298   2.391   1_556  S
O286        C287   1.281       .  A
C287        C971   1.488       .  S
O288       Zr291   2.416       .  S
O288        C290   1.283       .  A
O289       Zr297   2.457       .  S
O289        C290   1.291       .  A
Zr291       O292   2.424       .  S
Zr291       O293   2.407       .  S
Zr291       O299   2.355       .  S
Zr291       O300   2.371       .  S
Zr291       O303   2.350       .  S
Zr291       O301   2.362       .  S
O292        H312   0.989       .  S
O292        H317   0.989       .  S
O293        H313   0.990       .  S
Zr294       O295   2.435       .  S
Zr294       O296   2.434       .  S
Zr294       O300   2.388       .  S
Zr294       O299   2.377       .  S
Zr294       O304   2.376   1_556  S
Zr294       O302   2.381       .  S
O295        H311   0.990       .  S
O296        H310   0.990       .  S
O296        H320   0.990       .  S
Zr297       O300   2.392       .  S
Zr297       O302   2.405       .  S
Zr297       O303   2.373       .  S
Zr298       O299   2.388   1_554  S
Zr298       O301   2.369   1_554  S
Zr298       O304   2.389       .  S
O299        H307   0.962       .  S
O302        H306   0.952   1_556  S
O303        H308   0.964       .  S
O321       Zr333   2.414       .  S
O321        C323   1.275       .  A
O322       Zr359   2.461       .  S
O322        C323   1.284       .  A
C323        C414   1.465       .  S
O324       Zr336   2.515       .  S
O324        C326   1.300       .  A
O325       Zr360   2.380       .  S
O325        C326   1.279       .  A
C326        C928   1.499       .  S
O327       Zr336   2.521       .  S
O327        C329   1.303       .  A
O328       Zr359   2.376       .  S
O328        C329   1.276       .  A
C329       C1331   1.504       .  S
O330       Zr333   2.438       .  S
O330        C332   1.289       .  A
O331       Zr360   2.439       .  S
O331        C332   1.287       .  A
C332        C450   1.474       .  S
Zr333       O334   2.423       .  S
Zr333       O335   2.436       .  S
Zr333       O339   2.373       .  S
Zr333       O340   2.366       .  S
Zr333       O363   2.345       .  S
Zr333       O365   2.369       .  S
O334        H377   0.990       .  S
O335        H376   0.990       .  S
O335        H380   0.990       .  S
Zr336       O337   2.435       .  S
Zr336       O338   2.434       .  S
Zr336       O340   2.390       .  S
Zr336       O339   2.390       .  S
Zr336       O364   2.368       .  S
Zr336       O366   2.381       .  S
O337        H378   0.990       .  S
O337        H381   0.990       .  S
O338        H371   0.990       .  S
O339       Zr359   2.386       .  S
O340       Zr360   2.390       .  S
O340        H367   0.967       .  S
O341       Zr353   2.400       .  S
O341        C343   1.268       .  A
O342       Zr360   2.491   1_655  S
O342        C343   1.288       .  A
C343        C580   1.485       .  S
O344       Zr356   2.489       .  S
O344        C346   1.297       .  A
O345       Zr359   2.374   1_655  S
O345        C346   1.279       .  A
C346       C1278   1.480       .  S
O347       Zr356   2.487       .  S
O347        C349   1.295       .  A
O348       Zr360   2.377   1_655  S
O348        C349   1.276       .  A
C349        C881   1.491       .  S
O350       Zr353   2.379       .  S
O350        C352   1.278       .  A
O351       Zr359   2.465   1_655  S
O351        C352   1.289       .  A
C352        C509   1.476       .  S
Zr353       O354   2.422       .  S
Zr353       O355   2.421       .  S
Zr353       O361   2.356       .  S
Zr353       O362   2.358       .  S
Zr353       O365   2.337   1_655  S
Zr353       O363   2.356   1_655  S
O354        H374   0.989       .  S
O354        H379   0.987       .  S
O355        H375   0.990       .  S
Zr356       O357   2.435       .  S
Zr356       O358   2.436       .  S
Zr356       O362   2.379       .  S
Zr356       O361   2.383       .  S
Zr356       O366   2.376   1_655  S
Zr356       O364   2.378   1_655  S
O357        H373   0.990       .  S
O358        H372   0.991       .  S
O358        H382   0.990       .  S
Zr359       O362   2.381   1_455  S
Zr359       O364   2.408       .  S
Zr359       O365   2.359       .  S
Zr360       O361   2.390   1_455  S
Zr360       O363   2.351       .  S
Zr360       O366   2.401       .  S
O361        H369   0.965       .  S
O364        H368   0.965       .  S
O365        H370   0.965       .  S
O383       Zr395   2.415       .  S
O383        C385   1.276       .  A
O384       Zr421   2.466       .  S
O384        C385   1.287       .  A
O386       Zr398   2.488       .  S
O386        C388   1.295       .  A
O387       Zr422   2.346       .  S
O387        C388   1.268       .  A
C388       C1081   1.487       .  S
O389       Zr398   2.464       .  S
O389        C391   1.291       .  A
O390       Zr421   2.437       .  S
O390        C391   1.292       .  A
C391       C1391   1.481       .  S
O392       Zr395   2.405       .  S
O392        C394   1.283       .  A
O393       Zr422   2.479       .  S
O393        C394   1.292       .  A
Zr395       O396   2.421       .  S
Zr395       O397   2.437       .  S
Zr395       O401   2.360       .  S
Zr395       O402   2.364       .  S
Zr395       O425   2.355       .  S
Zr395       O427   2.358       .  S
O396        H439   0.989       .  S
O397        H438   0.990       .  S
O397        H442   0.990       .  S
Zr398       O399   2.433       .  S
Zr398       O400   2.434       .  S
Zr398       O402   2.374       .  S
Zr398       O401   2.386       .  S
Zr398       O426   2.386       .  S
Zr398       O428   2.368       .  S
O399        H440   0.990       .  S
O399        H443   0.990       .  S
O400        H433   0.990       .  S
O401       Zr421   2.381       .  S
O402       Zr422   2.381       .  S
O402        H429   0.966       .  S
O403       Zr415   2.421       .  S
O403        C405   1.276       .  A
O404       Zr422   2.446   1_545  S
O404        C405   1.280       .  A
C405        C453   1.474       .  S
O406       Zr418   2.512       .  S
O406        C408   1.299       .  A
O407       Zr421   2.364   1_545  S
O407        C408   1.276       .  A
C408       C1341   1.501       .  S
O409       Zr418   2.492       .  S
O409        C411   1.296       .  A
O410       Zr422   2.387   1_545  S
O410        C411   1.283       .  A
C411       C1181   1.490       .  S
O412       Zr415   2.389       .  S
O412        C414   1.279       .  A
O413       Zr421   2.463   1_545  S
O413        C414   1.291       .  A
Zr415       O416   2.432       .  S
Zr415       O417   2.423       .  S
Zr415       O423   2.357       .  S
Zr415       O424   2.366       .  S
Zr415       O427   2.354   1_545  S
Zr415       O425   2.351   1_545  S
O416        H436   0.989       .  S
O416        H441   0.989       .  S
O417        H437   0.990       .  S
Zr418       O419   2.434       .  S
Zr418       O420   2.437       .  S
Zr418       O424   2.371       .  S
Zr418       O423   2.392       .  S
Zr418       O428   2.384   1_545  S
Zr418       O426   2.375   1_545  S
O419        H435   0.990       .  S
O420        H434   0.990       .  S
O420        H444   0.990       .  S
Zr421       O424   2.391   1_565  S
Zr421       O426   2.410       .  S
Zr421       O427   2.372       .  S
Zr422       O423   2.395   1_565  S
Zr422       O425   2.355       .  S
Zr422       O428   2.403       .  S
O423        H431   0.966       .  S
O426        H430   0.965       .  S
O427        H432   0.964       .  S
O445       Zr457   2.506       .  S
O445        C447   1.300       .  A
O446       Zr483   2.384   1_554  S
O446        C447   1.281       .  A
C447       C1191   1.492       .  S
O448       Zr460   2.409       .  S
O448        C450   1.273       .  A
O449       Zr484   2.461   1_554  S
O449        C450   1.283       .  A
O451       Zr460   2.409       .  S
O451        C453   1.281       .  A
O452       Zr483   2.462   1_554  S
O452        C453   1.290       .  A
O454       Zr457   2.528       .  S
O454        C456   1.304       .  A
O455       Zr484   2.353   1_554  S
O455        C456   1.276       .  A
C456        C941   1.503       .  S
Zr457       O458   2.434       .  S
Zr457       O459   2.435       .  S
Zr457       O463   2.398       .  S
Zr457       O464   2.373       .  S
Zr457       O487   2.381   1_554  S
Zr457       O489   2.385   1_554  S
O458        H501   0.990       .  S
O459        H500   0.990       .  S
O459        H504   0.990       .  S
Zr460       O461   2.438       .  S
Zr460       O462   2.415       .  S
Zr460       O464   2.366       .  S
Zr460       O463   2.359       .  S
Zr460       O488   2.373   1_554  S
Zr460       O490   2.356   1_554  S
O461        H502   0.989       .  S
O461        H505   0.990       .  S
O462        H495   0.990       .  S
O463       Zr483   2.395   1_554  S
O464       Zr484   2.405   1_554  S
O464        H491   0.964       .  S
O465       Zr477   2.473       .  S
O465        C467   1.291       .  A
O466       Zr484   2.423       .  S
O466        C467   1.288       .  A
C467        C991   1.483       .  S
O468       Zr480   2.426       .  S
O468        C470   1.285       .  A
O469       Zr483   2.470       .  S
O469        C470   1.292       .  A
O471       Zr480   2.432       .  S
O471        C473   1.278       .  A
O472       Zr484   2.437       .  S
O472        C473   1.280       .  A
O474       Zr477   2.491       .  S
O474        C476   1.295       .  A
O475       Zr483   2.399       .  S
O475        C476   1.279       .  A
C476       C1138   1.504       .  S
Zr477       O478   2.431       .  S
Zr477       O479   2.433       .  S
Zr477       O485   2.391       .  S
Zr477       O486   2.381       .  S
Zr477       O489   2.372       .  S
Zr477       O487   2.387       .  S
O478        H498   0.990       .  S
O478        H503   0.991       .  S
O479        H499   0.990       .  S
Zr480       O481   2.414       .  S
Zr480       O482   2.441       .  S
Zr480       O486   2.373       .  S
Zr480       O485   2.382       .  S
Zr480       O490   2.342       .  S
Zr480       O488   2.362       .  S
O481        H497   0.989       .  S
O482        H496   0.990       .  S
O482        H506   0.990       .  S
Zr483       O486   2.370       .  S
Zr483       O488   2.361       .  S
Zr483       O489   2.405       .  S
Zr484       O485   2.395       .  S
Zr484       O487   2.399       .  S
Zr484       O490   2.372       .  S
O485        H493   0.966       .  S
O488        H492   0.966       .  S
O489        H494   0.964       .  S
O507       Zr519   2.386       .  S
O507        C509   1.280       .  A
O508       Zr545   2.456   1_545  S
O508        C509   1.285       .  A
O510       Zr522   2.528       .  S
O510        C512   1.303       .  A
O511       Zr546   2.374   1_545  S
O511        C512   1.282       .  A
C512       C1161   1.497       .  S
O513       Zr522   2.520       .  S
O513        C515   1.303       .  A
O514       Zr545   2.393   1_545  S
O514        C515   1.279       .  A
C515       C1291   1.510       .  S
O516       Zr519   2.409       .  S
O516        C518   1.272       .  A
O517       Zr546   2.503   1_545  S
O517        C518   1.292       .  A
C518        C571   1.491       .  S
Zr519       O520   2.428       .  S
Zr519       O521   2.440       .  S
Zr519       O525   2.362       .  S
Zr519       O526   2.369       .  S
Zr519       O549   2.346   1_545  S
Zr519       O551   2.363   1_545  S
O520        H563   0.990       .  S
O521        H562   0.990       .  S
O521        H566   0.990       .  S
Zr522       O523   2.434       .  S
Zr522       O524   2.433       .  S
Zr522       O526   2.385       .  S
Zr522       O525   2.393       .  S
Zr522       O550   2.384   1_545  S
Zr522       O552   2.374   1_545  S
O523        H564   0.990       .  S
O523        H567   0.990       .  S
O524        H557   0.990       .  S
O525       Zr545   2.379   1_545  S
O526       Zr546   2.393   1_545  S
O526        H553   0.965       .  S
O527       Zr539   2.428       .  S
O527        C529   1.278       .  A
O528       Zr546   2.461       .  S
O528        C529   1.283       .  A
C529        C763   1.473       .  S
O530       Zr542   2.474       .  S
O530        C532   1.293       .  A
O531       Zr545   2.371       .  S
O531        C532   1.279       .  A
C532       C1241   1.472       .  S
O533       Zr542   2.461       .  S
O533        C535   1.290       .  A
O534       Zr546   2.412       .  S
O534        C535   1.289       .  A
C535       C1061   1.480       .  S
O536       Zr539   2.410       .  S
O536        C538   1.282       .  A
O537       Zr545   2.481       .  S
O537        C538   1.294       .  A
Zr539       O540   2.432       .  S
Zr539       O541   2.416       .  S
Zr539       O547   2.359       .  S
Zr539       O548   2.354       .  S
Zr539       O551   2.380       .  S
Zr539       O549   2.356       .  S
O540        H560   0.989       .  S
O540        H565   0.988       .  S
O541        H561   0.989       .  S
Zr542       O543   2.435       .  S
Zr542       O544   2.434       .  S
Zr542       O548   2.378       .  S
Zr542       O547   2.383       .  S
Zr542       O552   2.387       .  S
Zr542       O550   2.372       .  S
O543        H559   0.990       .  S
O544        H558   0.990       .  S
O544        H568   0.990       .  S
Zr545       O548   2.380       .  S
Zr545       O550   2.407       .  S
Zr545       O551   2.365       .  S
Zr546       O547   2.397       .  S
Zr546       O549   2.370       .  S
Zr546       O552   2.401       .  S
O547        H555   0.965       .  S
O550        H554   0.965       .  S
O551        H556   0.965       .  S
O569       Zr581   2.456       .  S
O569        C571   1.290       .  A
O570       Zr607   2.467       .  S
O570        C571   1.291       .  A
O572       Zr584   2.517       .  S
O572        C574   1.302       .  A
O573       Zr608   2.365   1_554  S
O573        C574   1.271       .  A
C574        C891   1.506       .  S
O575       Zr584   2.504       .  S
O575        C577   1.299       .  A
O576       Zr607   2.385       .  S
O576        C577   1.283       .  A
C577       C1171   1.486       .  S
O578       Zr581   2.445       .  S
O578        C580   1.290       .  A
O579       Zr608   2.457   1_554  S
O579        C580   1.289       .  A
Zr581       O582   2.436       .  S
Zr581       O583   2.415       .  S
Zr581       O587   2.353       .  S
Zr581       O588   2.353       .  S
Zr581       O611   2.375       .  S
Zr581       O613   2.345       .  S
O582        H625   0.990       .  S
O583        H624   0.990       .  S
O583        H628   0.986       .  S
Zr584       O585   2.435       .  S
Zr584       O586   2.434       .  S
Zr584       O588   2.385       .  S
Zr584       O587   2.390       .  S
Zr584       O612   2.381   1_554  S
Zr584       O614   2.378   1_554  S
O585        H626   0.990       .  S
O585        H629   0.990       .  S
O586        H619   0.990       .  S
O587       Zr607   2.380       .  S
O588       Zr608   2.386   1_554  S
O588        H615   0.966       .  S
O589       Zr601   2.414       .  S
O589        C591   1.282       .  A
O590       Zr608   2.449       .  S
O590        C591   1.288       .  A
O592       Zr604   2.499       .  S
O592        C594   1.299       .  A
O593       Zr607   2.367   1_556  S
O593        C594   1.276       .  A
C594       C1118   1.487       .  S
O595       Zr604   2.509       .  S
O595        C597   1.299       .  A
O596       Zr608   2.393       .  S
O596        C597   1.283       .  A
C597        C848   1.515       .  S
O598       Zr601   2.407       .  S
O598        C600   1.274       .  A
O599       Zr607   2.480   1_556  S
O599        C600   1.288       .  A
C600        C698   1.476       .  S
Zr601       O602   2.425       .  S
Zr601       O603   2.434       .  S
Zr601       O609   2.370       .  S
Zr601       O610   2.364       .  S
Zr601       O613   2.363   1_556  S
Zr601       O611   2.359   1_556  S
O602        H622   0.989       .  S
O602        H627   0.988       .  S
O603        H623   0.990       .  S
Zr604       O605   2.436       .  S
Zr604       O606   2.435       .  S
Zr604       O610   2.391       .  S
Zr604       O609   2.386       .  S
Zr604       O614   2.375       .  S
Zr604       O612   2.370       .  S
O605        H621   0.990       .  S
O606        H620   0.990       .  S
O606        H630   0.990       .  S
Zr607       O610   2.380   1_554  S
Zr607       O612   2.411   1_554  S
Zr607       O613   2.359       .  S
Zr608       O609   2.378       .  S
Zr608       O611   2.360   1_556  S
Zr608       O614   2.394       .  S
O609        H617   0.967       .  S
O612        H616   0.966       .  S
O613        H618   0.965       .  S
O631       Zr643   2.395       .  S
O631        C633   1.280       .  A
O632       Zr669   2.481       .  S
O632        C633   1.293       .  A
O634       Zr646   2.541       .  S
O634        C636   1.308       .  A
O635       Zr670   2.358       .  S
O635        C636   1.272       .  A
C636        C961   1.501       .  S
O637       Zr646   2.488       .  S
O637        C639   1.297       .  A
O638       Zr669   2.384       .  S
O638        C639   1.284       .  A
C639       C1358   1.482       .  S
O640       Zr643   2.364       .  S
O640        C642   1.274       .  A
O641       Zr670   2.506       .  S
O641        C642   1.301       .  A
Zr643       O644   2.427       .  S
Zr643       O645   2.432       .  S
Zr643       O649   2.341       .  S
Zr643       O650   2.357       .  S
Zr643       O673   2.361       .  S
Zr643       O675   2.332       .  S
O644        H687   0.990       .  S
O645        H686   0.990       .  S
O645        H690   0.989       .  S
Zr646       O647   2.432       .  S
Zr646       O648   2.434       .  S
Zr646       O650   2.368       .  S
Zr646       O649   2.398       .  S
Zr646       O674   2.400       .  S
Zr646       O676   2.362       .  S
O647        H688   0.990       .  S
O647        H691   0.990       .  S
O648        H681   0.990       .  S
O649       Zr669   2.385       .  S
O650       Zr670   2.386       .  S
O650        H677   0.966       .  S
O651       Zr663   2.445       .  S
O651        C653   1.283       .  A
O652       Zr670   2.432   1_655  S
O652        C653   1.280       .  A
C653        C783   1.473       .  S
O654       Zr666   2.504       .  S
O654        C656   1.301       .  A
O655       Zr669   2.410   1_655  S
O655        C656   1.284       .  A
C656       C1218   1.493       .  S
O657       Zr666   2.458       .  S
O657        C659   1.289       .  A
O658       Zr670   2.454   1_655  S
O658        C659   1.294       .  A
C659        C818   1.486       .  S
O660       Zr663   2.412       .  S
O660        C662   1.277       .  A
O661       Zr669   2.451   1_655  S
O661        C662   1.286       .  A
C662        C718   1.458       .  S
Zr663       O664   2.419       .  S
Zr663       O665   2.427       .  S
Zr663       O671   2.363       .  S
Zr663       O672   2.367       .  S
Zr663       O675   2.379   1_655  S
Zr663       O673   2.348   1_655  S
O664        H684   0.988       .  S
O664        H689   0.987       .  S
O665        H685   0.990       .  S
Zr666       O667   2.435       .  S
Zr666       O668   2.437       .  S
Zr666       O672   2.367       .  S
Zr666       O671   2.397       .  S
Zr666       O676   2.389   1_655  S
Zr666       O674   2.357   1_655  S
O667        H683   0.990       .  S
O668        H682   0.990       .  S
O668        H692   0.990       .  S
Zr669       O672   2.382   1_455  S
Zr669       O674   2.412       .  S
Zr669       O675   2.360       .  S
Zr670       O671   2.396   1_455  S
Zr670       O673   2.358       .  S
Zr670       O676   2.398       .  S
O671        H679   0.964       .  S
O674        H678   0.966       .  S
O675        H680   0.964       .  S
O693       Zr705   2.485       .  S
O693        C695   1.296       .  A
O694       Zr731   2.396   1_545  S
O694        C695   1.282       .  A
C695       C1268   1.493       .  S
O696       Zr708   2.406       .  S
O696        C698   1.283       .  A
O697       Zr732   2.460   1_545  S
O697        C698   1.289       .  A
O699       Zr708   2.407       .  S
O699        C701   1.274       .  A
O700       Zr731   2.465   1_545  S
O700        C701   1.285       .  A
O702       Zr705   2.486       .  S
O702        C704   1.295       .  A
O703       Zr732   2.362   1_545  S
O703        C704   1.276       .  A
C704       C1108   1.480       .  S
Zr705       O706   2.437       .  S
Zr705       O707   2.433       .  S
Zr705       O711   2.379       .  S
Zr705       O712   2.381       .  S
Zr705       O735   2.367   1_545  S
Zr705       O737   2.387   1_545  S
O706        H749   0.990       .  S
O707        H748   0.990       .  S
O707        H752   0.990       .  S
Zr708       O709   2.430       .  S
Zr708       O710   2.427       .  S
Zr708       O712   2.359       .  S
Zr708       O711   2.355       .  S
Zr708       O736   2.366   1_545  S
Zr708       O738   2.354   1_545  S
O709        H750   0.989       .  S
O709        H753   0.985       .  S
O710        H743   0.990       .  S
O711       Zr731   2.378   1_545  S
O712       Zr732   2.379   1_545  S
O712        H739   0.967       .  S
O713       Zr725   2.511       .  S
O713        C715   1.301       .  A
O714       Zr732   2.362       .  S
O714        C715   1.277       .  A
C715       C1021   1.491       .  S
O716       Zr728   2.414       .  S
O716        C718   1.284       .  A
O717       Zr731   2.435       .  S
O717        C718   1.286       .  A
O719       Zr728   2.424       .  S
O719        C721   1.275       .  A
O720       Zr732   2.455       .  S
O720        C721   1.280       .  A
C721        C780   1.478       .  S
O722       Zr725   2.538       .  S
O722        C724   1.305       .  A
O723       Zr731   2.374       .  S
O723        C724   1.274       .  A
C724       C1231   1.499       .  S
Zr725       O726   2.435       .  S
Zr725       O727   2.433       .  S
Zr725       O733   2.394       .  S
Zr725       O734   2.372       .  S
Zr725       O737   2.378       .  S
Zr725       O735   2.386       .  S
O726        H746   0.990       .  S
O726        H751   0.990       .  S
O727        H747   0.990       .  S
Zr728       O729   2.426       .  S
Zr728       O730   2.414       .  S
Zr728       O734   2.355       .  S
Zr728       O733   2.355       .  S
Zr728       O738   2.360       .  S
Zr728       O736   2.350       .  S
O729        H745   0.990       .  S
O730        H744   0.990       .  S
O730        H754   0.987       .  S
Zr731       O734   2.379       .  S
Zr731       O736   2.368       .  S
Zr731       O737   2.410       .  S
Zr732       O733   2.401       .  S
Zr732       O735   2.402       .  S
Zr732       O738   2.358       .  S
O733        H741   0.966       .  S
O736        H740   0.964       .  S
O737        H742   0.966       .  S
O755       Zr767   2.483       .  S
O755        C757   1.293       .  A
O756       Zr793   2.361       .  S
O756        C757   1.278       .  A
C757       C1071   1.495       .  S
O758       Zr770   2.402       .  S
O758        C760   1.281       .  A
O759       Zr794   2.476       .  S
O759        C760   1.295       .  A
O761       Zr770   2.400       .  S
O761        C763   1.282       .  A
O762       Zr793   2.470       .  S
O762        C763   1.293       .  A
O764       Zr767   2.461       .  S
O764        C766   1.290       .  A
O765       Zr794   2.429       .  S
O765        C766   1.290       .  A
C766        C868   1.478       .  S
Zr767       O768   2.434       .  S
Zr767       O769   2.436       .  S
Zr767       O773   2.368       .  S
Zr767       O774   2.385       .  S
Zr767       O797   2.380       .  S
Zr767       O799   2.376       .  S
O768        H811   0.990       .  S
O769        H810   0.990       .  S
O769        H814   0.990       .  S
Zr770       O771   2.425       .  S
Zr770       O772   2.432       .  S
Zr770       O774   2.360       .  S
Zr770       O773   2.351       .  S
Zr770       O798   2.364       .  S
Zr770       O800   2.347       .  S
O771        H812   0.989       .  S
O771        H815   0.989       .  S
O772        H805   0.990       .  S
O773       Zr793   2.377       .  S
O774       Zr794   2.379       .  S
O774        H801   0.965       .  S
O775       Zr787   2.504       .  S
O775        C777   1.300       .  A
O776       Zr794   2.374   1_556  S
O776        C777   1.279       .  A
C777        C831   1.490       .  S
O778       Zr790   2.404       .  S
O778        C780   1.281       .  A
O779       Zr793   2.472   1_556  S
O779        C780   1.293       .  A
O781       Zr790   2.376       .  S
O781        C783   1.277       .  A
O782       Zr794   2.493   1_556  S
O782        C783   1.298       .  A
O784       Zr787   2.503       .  S
O784        C786   1.299       .  A
O785       Zr793   2.417   1_556  S
O785        C786   1.288       .  A
C786       C1031   1.494       .  S
Zr787       O788   2.438       .  S
Zr787       O789   2.433       .  S
Zr787       O795   2.382       .  S
Zr787       O796   2.389       .  S
Zr787       O799   2.385   1_556  S
Zr787       O797   2.376   1_556  S
O788        H808   0.990       .  S
O788        H813   0.990       .  S
O789        H809   0.990       .  S
Zr790       O791   2.415       .  S
Zr790       O792   2.437       .  S
Zr790       O796   2.354       .  S
Zr790       O795   2.357       .  S
Zr790       O800   2.358   1_556  S
Zr790       O798   2.345   1_556  S
O791        H807   0.989       .  S
O792        H806   0.990       .  S
O792        H816   0.990       .  S
Zr793       O796   2.370   1_554  S
Zr793       O798   2.354       .  S
Zr793       O799   2.408       .  S
Zr794       O795   2.385   1_554  S
Zr794       O797   2.403       .  S
Zr794       O800   2.349       .  S
O795        H803   0.965       .  S
O798        H802   0.965       .  S
O799        H804   0.965       .  S
C817        C818   1.402       .  A
C817        C822   1.415       .  A
C817        H824   1.083       .  S
C818        C819   1.393       .  A
C819        C820   1.391       .  A
C819       Br826   1.909   1_655  S
C820        C821   1.406       .  A
C820        H825   1.066       .  S
C821        C822   1.428       .  A
C822       Br823   1.915       .  S
C827        C828   1.401       .  A
C827        C832   1.394       .  A
C827        H834   1.084       .  S
C828        C829   1.415       .  A
C829        C830   1.407       .  A
C829       Br836   1.915       .  S
C830        C831   1.404       .  A
C830        H835   1.083       .  S
C831        C832   1.417       .  A
C832       Br833   1.919       .  S
C837        C838   1.387       .  A
C837        C842   1.379       .  A
C837        H844   1.074       .  S
C838        C839   1.408       .  A
C839        C840   1.411       .  A
C839       Br846   1.915       .  S
C840        C841   1.411       .  A
C840        H845   1.083       .  S
C841        C842   1.427       .  A
C842       Br843   1.928   1_655  S
C847        C848   1.413       .  A
C847        C852   1.392       .  A
C847        H854   1.075       .  S
C848        C849   1.418       .  A
C849        C850   1.416       .  A
C849       Br856   1.916       .  S
C850        C851   1.411       .  A
C850        H855   1.083       .  S
C851        C852   1.401       .  A
C852       Br853   1.919       .  S
C857        C858   1.412       .  A
C857        C862   1.411       .  A
C857        H864   1.083       .  S
C858        C859   1.409       .  A
C859        C860   1.394       .  A
C859       Br866   1.923       .  S
C860        C861   1.411       .  A
C860        H865   1.084       .  S
C861        C862   1.411       .  A
C862       Br863   1.914       .  S
C867        C868   1.399       .  A
C867        C872   1.410       .  A
C867        H874   1.083       .  S
C868        C869   1.395       .  A
C869        C870   1.390       .  A
C869       Br876   1.900       .  S
C870        C871   1.409       .  A
C870        H875   1.068       .  S
C871        C872   1.425       .  A
C872       Br873   1.918       .  S
C877        C878   1.390       .  A
C877        C882   1.387       .  A
C877        H884   1.083       .  S
C878        C879   1.411       .  A
C879        C880   1.408       .  A
C879       Br886   1.918       .  S
C880        C881   1.408       .  A
C880        H885   1.083       .  S
C881        C882   1.423       .  A
C882       Br883   1.927       .  S
C887        C888   1.389       .  A
C887        C892   1.392       .  A
C887        H894   1.083       .  S
C888        C889   1.411       .  A
C889        C890   1.412       .  A
C889       Br896   1.915       .  S
C890        C891   1.409       .  A
C890        H895   1.083       .  S
C891        C892   1.434       .  A
C892       Br893   1.928       .  S
C897        C898   1.412       .  A
C897        C902   1.426   1_554  A
C897        H904   1.083       .  S
C898        C899   1.414       .  A
C899        C900   1.398   1_554  A
C899       Br906   1.891       .  S
C900        C901   1.399       .  A
C900        H905   1.083       .  S
C901        C902   1.425       .  A
C902       Br903   1.909       .  S
C907        C908   1.385       .  A
C907        C912   1.375       .  A
C907        H914   1.071       .  S
C908        C909   1.414       .  A
C909        C910   1.414       .  A
C909       Br916   1.914       .  S
C910        C911   1.409       .  A
C910        H915   1.083       .  S
C911        C912   1.423       .  A
C912       Br913   1.919       .  S
C917        C918   1.393       .  A
C917        C922   1.383       .  A
C917        H924   1.078       .  S
C918        C919   1.415       .  A
C919        C920   1.416       .  A
C919       Br926   1.914       .  S
C920        C921   1.409       .  A
C920        H925   1.083       .  S
C921        C922   1.423       .  A
C922       Br923   1.926       .  S
C927        C928   1.407       .  A
C927        C932   1.386       .  A
C927        H934   1.076       .  S
C928        C929   1.411       .  A
C929        C930   1.416       .  A
C929       Br936   1.914       .  S
C930        C931   1.414       .  A
C930        H935   1.083       .  S
C931        C932   1.400       .  A
C932       Br933   1.907       .  S
C937        C938   1.409       .  A
C937        C942   1.409       .  A
C937        H944   1.083       .  S
C938        C939   1.398       .  A
C939        C940   1.387       .  A
C939       Br946   1.915       .  S
C940        C941   1.418       .  A
C940        H945   1.083       .  S
C941        C942   1.412       .  A
C942       Br943   1.914       .  S
C947        C948   1.416       .  A
C947        C952   1.434   1_455  A
C947        H954   1.082       .  S
C948        C949   1.411       .  A
C949        C950   1.388       .  A
C949       Br956   1.896       .  S
C950        C951   1.388   1_455  A
C950        H955   1.069   1_455  S
C951        C952   1.426       .  A
C952       Br953   1.909       .  S
C957        C958   1.391       .  A
C957        C962   1.390       .  A
C957        H964   1.083       .  S
C958        C959   1.414       .  A
C959        C960   1.412       .  A
C959       Br966   1.916       .  S
C960        C961   1.407       .  A
C960        H965   1.083       .  S
C961        C962   1.432       .  A
C962       Br963   1.926       .  S
C967        C968   1.394       .  A
C967        C972   1.379       .  A
C967        H974   1.068       .  S
C968        C969   1.417       .  A
C969        C970   1.416       .  A
C969       Br976   1.916       .  S
C970        C971   1.409       .  A
C970        H975   1.083       .  S
C971        C972   1.412       .  A
C972       Br973   1.918       .  S
C977        C978   1.417       .  A
C977        C982   1.410       .  A
C977        H984   1.082       .  S
C978        C979   1.411       .  A
C979        C980   1.394       .  A
C979       Br986   1.914       .  S
C980        C981   1.408       .  A
C980        H985   1.085       .  S
C981        C982   1.407       .  A
C982       Br983   1.917       .  S
C987        C988   1.403       .  A
C987        C992   1.391       .  A
C987        H994   1.069       .  S
C988        C989   1.424       .  A
C989        C990   1.415       .  A
C989       Br996   1.918       .  S
C990        C991   1.403       .  A
C990        H995   1.082       .  S
C991        C992   1.394       .  A
C992       Br993   1.907       .  S
C997        C998   1.423       .  A
C997       C1002   1.434   1_556  A
C997       H1004   1.082       .  S
C998        C999   1.419       .  A
C999       C1000   1.398   1_556  A
C999      Br1006   1.912       .  S
C1000      C1001   1.397       .  A
C1000      H1005   1.069       .  S
C1001      C1002   1.421       .  A
C1002     Br1003   1.913       .  S
C1007      C1008   1.402       .  A
C1007      C1012   1.403   1_655  A
C1007      H1014   1.081       .  S
C1008      C1009   1.419   1_655  A
C1009      C1010   1.428       .  A
C1009     Br1016   1.915   1_455  S
C1010      C1011   1.419       .  A
C1010      H1015   1.082       .  S
C1011      C1012   1.415       .  A
C1012     Br1013   1.910       .  S
C1017      C1018   1.417       .  A
C1017      C1022   1.415       .  A
C1017      H1024   1.082       .  S
C1018      C1019   1.412       .  A
C1019      C1020   1.387       .  A
C1019     Br1026   1.913       .  S
C1020      C1021   1.406       .  A
C1020      H1025   1.084       .  S
C1021      C1022   1.407       .  A
C1022     Br1023   1.915       .  S
C1027      C1028   1.408       .  A
C1027      C1032   1.389       .  A
C1027      H1034   1.071       .  S
C1028      C1029   1.428       .  A
C1029      C1030   1.421       .  A
C1029     Br1036   1.914       .  S
C1030      C1031   1.404       .  A
C1030      H1035   1.083       .  S
C1031      C1032   1.398       .  A
C1032     Br1033   1.901   1_556  S
C1037      C1038   1.421       .  A
C1037      C1042   1.418       .  A
C1037      H1044   1.083       .  S
C1038      C1039   1.420       .  A
C1039      C1040   1.387       .  A
C1039     Br1046   1.908       .  S
C1040      C1041   1.397       .  A
C1040      H1045   1.086       .  S
C1041      C1042   1.408       .  A
C1042     Br1043   1.915       .  S
C1047      C1048   1.412       .  A
C1047      C1052   1.389       .  A
C1047      H1054   1.069       .  S
C1048      C1049   1.426       .  A
C1049      C1050   1.414       .  A
C1049     Br1056   1.916       .  S
C1050      C1051   1.402       .  A
C1050      H1055   1.083       .  S
C1051      C1052   1.395       .  A
C1052     Br1053   1.908       .  S
C1057      C1058   1.414       .  A
C1057      C1062   1.412       .  A
C1057      H1064   1.082       .  S
C1058      C1059   1.413       .  A
C1059      C1060   1.382       .  A
C1059     Br1066   1.901       .  S
C1060      C1061   1.394       .  A
C1060      H1065   1.086       .  S
C1061      C1062   1.411       .  A
C1062     Br1063   1.913       .  S
C1067      C1068   1.408       .  A
C1067      C1072   1.409       .  A
C1067      H1074   1.083       .  S
C1068      C1069   1.397       .  A
C1069      C1070   1.383       .  A
C1069     Br1076   1.913       .  S
C1070      C1071   1.414       .  A
C1070      H1075   1.083       .  S
C1071      C1072   1.415       .  A
C1072     Br1073   1.917       .  S
C1077      C1078   1.387       .  A
C1077      C1082   1.384       .  A
C1077      H1084   1.081       .  S
C1078      C1079   1.408       .  A
C1079      C1080   1.406       .  A
C1079     Br1086   1.916       .  S
C1080      C1081   1.407       .  A
C1080      H1085   1.083       .  S
C1081      C1082   1.427       .  A
C1082     Br1083   1.934       .  S
C1087      C1088   1.390       .  A
C1087      C1092   1.390       .  A
C1087      H1094   1.082       .  S
C1088      C1089   1.410       .  A
C1089      C1090   1.413       .  A
C1089     Br1096   1.914       .  S
C1090      C1091   1.411       .  A
C1090      H1095   1.083       .  S
C1091      C1092   1.431       .  A
C1092     Br1093   1.923       .  S
C1097      C1098   1.422       .  A
C1097      C1102   1.429   1_556  A
C1097      H1104   1.082       .  S
C1098      C1099   1.412       .  A
C1099      C1100   1.392   1_556  A
C1099     Br1106   1.895       .  S
C1100      C1101   1.394       .  A
C1100      H1105   1.074       .  S
C1101      C1102   1.416       .  A
C1102     Br1103   1.909       .  S
C1107      C1108   1.408       .  A
C1107      C1112   1.386       .  A
C1107      H1114   1.084   1_545  S
C1108      C1109   1.407       .  A
C1109      C1110   1.406       .  A
C1109     Br1116   1.917       .  S
C1110      C1111   1.410       .  A
C1110      H1115   1.083       .  S
C1111      C1112   1.409       .  A
C1112     Br1113   1.921       .  S
C1117      C1118   1.408       .  A
C1117      C1122   1.411       .  A
C1117      H1124   1.083       .  S
C1118      C1119   1.419       .  A
C1119      C1120   1.383       .  A
C1119     Br1126   1.927       .  S
C1120      C1121   1.387       .  A
C1120      H1125   1.074       .  S
C1121      C1122   1.412       .  A
C1122     Br1123   1.916       .  S
C1127      C1128   1.388       .  A
C1127      C1132   1.374       .  A
C1127      H1134   1.075       .  S
C1128      C1129   1.408       .  A
C1129      C1130   1.408       .  A
C1129     Br1136   1.915       .  S
C1130      C1131   1.408       .  A
C1130      H1135   1.083       .  S
C1131      C1132   1.425       .  A
C1132     Br1133   1.934       .  S
C1137      C1138   1.416       .  A
C1137      C1142   1.417       .  A
C1137      H1144   1.083       .  S
C1138      C1139   1.423       .  A
C1139      C1140   1.385       .  A
C1139     Br1146   1.931       .  S
C1140      C1141   1.395       .  A
C1140      H1145   1.071       .  S
C1141      C1142   1.408       .  A
C1142     Br1143   1.916       .  S
C1147      C1148   1.422       .  A
C1147      C1152   1.428       .  A
C1147      H1154   1.075       .  S
C1148      C1149   1.422       .  A
C1149      C1150   1.392   1_565  A
C1149     Br1156   1.898       .  S
C1150      C1151   1.394       .  A
C1150      H1155   1.078       .  S
C1151      C1152   1.418   1_545  A
C1152     Br1153   1.913   1_565  S
C1157      C1158   1.418       .  A
C1157      C1162   1.421       .  A
C1157      H1164   1.083       .  S
C1158      C1159   1.412       .  A
C1159      C1160   1.388       .  A
C1159     Br1166   1.898       .  S
C1160      C1161   1.400       .  A
C1160      H1165   1.085       .  S
C1161      C1162   1.412       .  A
C1162     Br1163   1.912       .  S
C1167      C1168   1.416       .  A
C1167      C1172   1.413       .  A
C1167      H1174   1.083       .  S
C1168      C1169   1.409       .  A
C1169      C1170   1.388       .  A
C1169     Br1176   1.909       .  S
C1170      C1171   1.403       .  A
C1170      H1175   1.084       .  S
C1171      C1172   1.408       .  A
C1172     Br1173   1.915       .  S
C1177      C1178   1.413       .  A
C1177      C1182   1.412       .  A
C1177      H1184   1.083       .  S
C1178      C1179   1.410       .  A
C1179      C1180   1.386       .  A
C1179     Br1186   1.911   1_545  S
C1180      C1181   1.402       .  A
C1180      H1185   1.079   1_545  S
C1181      C1182   1.409       .  A
C1182     Br1183   1.914       .  S
C1187      C1188   1.397       .  A
C1187      C1192   1.385       .  A
C1187      H1194   1.072       .  S
C1188      C1189   1.421       .  A
C1189      C1190   1.418       .  A
C1189     Br1196   1.915       .  S
C1190      C1191   1.407       .  A
C1190      H1195   1.083       .  S
C1191      C1192   1.410       .  A
C1192     Br1193   1.914       .  S
C1197      C1198   1.396       .  A
C1197      C1202   1.395       .  A
C1197      H1204   1.074       .  S
C1198      C1199   1.415       .  A
C1199      C1200   1.424       .  A
C1199     Br1206   1.911       .  S
C1200      C1201   1.416   1_565  A
C1200      H1205   1.083   1_565  S
C1201      C1202   1.413   1_545  A
C1202     Br1203   1.911   1_565  S
C1207      C1208   1.395       .  A
C1207      C1212   1.393   1_556  A
C1207      H1214   1.081       .  S
C1208      C1209   1.424       .  A
C1209      C1210   1.428   1_556  A
C1209     Br1216   1.908       .  S
C1210      C1211   1.417       .  A
C1210      H1215   1.082       .  S
C1211      C1212   1.415       .  A
C1212     Br1213   1.900       .  S
C1217      C1218   1.409       .  A
C1217      C1222   1.468       .  A
C1217      H1224   1.080       .  S
C1218      C1219   1.390       .  A
C1219      C1220   1.387       .  A
C1219     Br1226   1.921       .  S
C1220      C1221   1.407       .  A
C1220      H1225   1.074       .  S
C1221      C1222   1.508       .  A
C1222     Br1223   3.707       .  S
C1227      C1228   1.636       .  A
C1227      C1232   1.618       .  A
C1227      H1234   1.082       .  S
C1228      C1229   1.621       .  A
C1229      C1230   1.603       .  A
C1229     Br1236   1.901       .  S
C1230      C1231   1.631       .  A
C1230      H1235   1.080       .  S
C1231      C1232   1.616       .  A
C1232     Br1233   1.909       .  S
C1237      C1238   1.388       .  A
C1237      C1242   1.372       .  A
C1237      H1244   1.063       .  S
C1238      C1239   1.415       .  A
C1239      C1240   1.410       .  A
C1239     Br1246   1.917       .  S
C1240      C1241   1.406       .  A
C1240      H1245   1.083       .  S
C1241      C1242   1.406       .  A
C1242     Br1243   1.914       .  S
C1247      C1248   1.417       .  A
C1247      C1252   1.417       .  A
C1247      H1254   1.083       .  S
C1248      C1249   1.420       .  A
C1249      C1250   1.385       .  A
C1249     Br1256   1.911   1_655  S
C1250      C1251   1.400       .  A
C1250      H1255   1.084   1_655  S
C1251      C1252   1.410       .  A
C1252     Br1253   1.914       .  S
C1257      C1258   1.390       .  A
C1257      C1262   1.383       .  A
C1257      H1264   1.075       .  S
C1258      C1259   1.415       .  A
C1259      C1260   1.415       .  A
C1259     Br1266   1.913       .  S
C1260      C1261   1.409       .  A
C1260      H1265   1.083       .  S
C1261      C1262   1.428       .  A
C1262     Br1263   1.929   1_655  S
C1267      C1268   1.409       .  A
C1267      C1272   1.407       .  A
C1267      H1274   1.083       .  S
C1268      C1269   1.419       .  A
C1269      C1270   1.393       .  A
C1269     Br1276   1.925       .  S
C1270      C1271   1.394       .  A
C1270      H1275   1.082       .  S
C1271      C1272   1.411       .  A
C1272     Br1273   1.918       .  S
C1277      C1278   1.407       .  A
C1277      C1282   1.385       .  A
C1277      H1284   1.080       .  S
C1278      C1279   1.405       .  A
C1279      C1280   1.405       .  A
C1279     Br1286   1.915       .  S
C1280      C1281   1.409       .  A
C1280      H1285   1.083       .  S
C1281      C1282   1.404       .  A
C1282     Br1283   1.917       .  S
C1287      C1288   1.394       .  A
C1287      C1292   1.390       .  A
C1287      H1294   1.070       .  S
C1288      C1289   1.415       .  A
C1289      C1290   1.421       .  A
C1289     Br1296   1.914       .  S
C1290      C1291   1.413       .  A
C1290      H1295   1.083       .  S
C1291      C1292   1.424       .  A
C1292     Br1293   1.929       .  S
C1297      C1298   1.400       .  A
C1297      C1302   1.397   1_545  A
C1297      H1304   1.081       .  S
C1298      C1299   1.419       .  A
C1299      C1300   1.422   1_545  A
C1299     Br1306   1.910       .  S
C1300      C1301   1.414       .  A
C1300      H1305   1.081       .  S
C1301      C1302   1.423       .  A
C1302     Br1303   1.911       .  S
C1307      C1308   1.416       .  A
C1307      C1312   1.416       .  A
C1307      H1314   1.083       .  S
C1308      C1309   1.415       .  A
C1309      C1310   1.379       .  A
C1309     Br1316   1.906   1_545  S
C1310      C1311   1.397       .  A
C1310      H1315   1.084   1_545  S
C1311      C1312   1.409       .  A
C1312     Br1313   1.915       .  S
C1317      C1318   1.389       .  A
C1317      C1322   1.383       .  A
C1317      H1324   1.068       .  S
C1318      C1319   1.420       .  A
C1319      C1320   1.419       .  A
C1319     Br1326   1.912       .  S
C1320      C1321   1.409       .  A
C1320      H1325   1.083       .  S
C1321      C1322   1.410       .  A
C1322     Br1323   1.913       .  S
C1327      C1328   1.386       .  A
C1327      C1332   1.393       .  A
C1327      H1334   1.074       .  S
C1328      C1329   1.412       .  A
C1329      C1330   1.414       .  A
C1329     Br1336   1.913       .  S
C1330      C1331   1.410       .  A
C1330      H1335   1.083       .  S
C1331      C1332   1.426       .  A
C1332     Br1333   1.932       .  S
C1337      C1338   1.413       .  A
C1337      C1342   1.415       .  A
C1337      H1344   1.083       .  S
C1338      C1339   1.409       .  A
C1339      C1340   1.383       .  A
C1339     Br1346   1.916       .  S
C1340      C1341   1.412       .  A
C1340      H1345   1.083       .  S
C1341      C1342   1.411       .  A
C1342     Br1343   1.915       .  S
C1347      C1348   1.418       .  A
C1347      C1352   1.430       .  A
C1347      H1354   1.082       .  S
C1348      C1349   1.417       .  A
C1349      C1350   1.398   1_455  A
C1349     Br1356   1.897       .  S
C1350      C1351   1.399       .  A
C1350      H1355   1.084       .  S
C1351      C1352   1.419   1_655  A
C1352     Br1353   1.911   1_455  S
C1357      C1358   1.400       .  A
C1357      C1362   1.383       .  A
C1357      H1364   1.085       .  S
C1358      C1359   1.407       .  A
C1359      C1360   1.412       .  A
C1359     Br1366   1.915       .  S
C1360      C1361   1.414       .  A
C1360      H1365   1.083       .  S
C1361      C1362   1.415       .  A
C1362     Br1363   1.910       .  S
C1367      C1368   1.388       .  A
C1367      C1372   1.383       .  A
C1367      H1374   1.074       .  S
C1368      C1369   1.412       .  A
C1369      C1370   1.411       .  A
C1369     Br1376   1.916       .  S
C1370      C1371   1.408       .  A
C1370      H1375   1.083       .  S
C1371      C1372   1.420       .  A
C1372     Br1373   1.920       .  S
C1377      C1378   1.410       .  A
C1377      C1382   1.406       .  A
C1377      H1384   1.083       .  S
C1378      C1379   1.408       .  A
C1379      C1380   1.392       .  A
C1379     Br1386   1.918       .  S
C1380      C1381   1.411       .  A
C1380      H1385   1.084       .  S
C1381      C1382   1.411       .  A
C1382     Br1383   1.914       .  S
C1387      C1388   1.407       .  A
C1387      C1392   1.388       .  A
C1387      H1394   1.068       .  S
C1388      C1389   1.425       .  A
C1389      C1390   1.412       .  A
C1389     Br1396   1.918       .  S
C1390      C1391   1.402       .  A
C1390      H1395   1.083       .  S
C1391      C1392   1.397       .  A
C1392     Br1393   1.906       .  S
C1397      C1398   1.422       .  A
C1397      C1402   1.436       .  A
C1397      H1404   1.082       .  S
C1398      C1399   1.406       .  A
C1399      C1400   1.385       .  A
C1399     Br1406   1.885       .  S
C1400      C1401   1.384   1_565  A
C1400      H1405   1.074   1_565  S
C1401      C1402   1.420   1_545  A
C1402     Br1403   1.910   1_565  S
C1407      C1408   1.382       .  A
C1407      C1412   1.385       .  A
C1407      H1414   1.070       .  S
C1408      C1409   1.418       .  A
C1409      C1410   1.430       .  A
C1409     Br1416   1.910       .  S
C1410      C1411   1.421   1_455  A
C1410      H1415   1.081   1_455  S
C1411      C1412   1.401   1_655  A
C1412     Br1413   1.897   1_455  S
