geometry optimzed in LAMMPS
_audit_creation_date              2020-11-30 
_audit_creation_method            'lammps2cif' 
_symmetry_space_group_name_H-M    'P1' 
_symmetry_Int_Tables_number       1 
_symmetry_cell_setting            triclinic 
loop_ 
_symmetry_equiv_pos_as_xyz 
  x,y,z 
_cell_length_a                    32.79856434 
_cell_length_b                    32.81260790352619 
_cell_length_c                    32.80043084393917 
_cell_angle_alpha                 89.96209739735424 
_cell_angle_beta                  89.75177229245548 
_cell_angle_gamma                 90.1938825387582 
loop_ 
_atom_site_label 
_atom_site_type_symbol 
_atom_site_fract_x 
_atom_site_fract_y 
_atom_site_fract_z 
_atom_site_charge 
Zn1        Zn  0.96528846  0.03796024  0.03536713     1.49700
Zn2        Zn  0.03103092  0.03710469  0.96278569     1.49400
Zn3        Zn  0.03371657  0.96899062  0.03159086     1.49100
Zn4        Zn  0.96107630  0.96920090  0.96780921     1.49500
O5          O  0.99779646  0.00350523  0.99936104    -1.83200
O6          O  0.97892622  0.09685397  0.02574446    -0.73900
O7          O  0.09106703  0.02798811  0.97209577    -0.73700
O8          O  0.02432620  0.97724175  0.09138800    -0.73200
O9          O  0.01987585  0.09680904  0.97142912    -0.73900
O10         O  0.97613931  0.02473804  0.09405338    -0.73500
O11         O  0.09239372  0.98058543  0.02046968    -0.74100
O12         O  0.96874143  0.91010566  0.98112307    -0.73500
O13         O  0.01942141  0.02366160  0.90440595    -0.74200
O14         O  0.02462329  0.90999113  0.01935399    -0.73600
O15         O  0.97033534  0.97679557  0.90776837    -0.74100
O16         O  0.90288898  0.98276277  0.97843665    -0.74000
O17         O  0.90481785  0.03098127  0.02588403    -0.73800
C18         C  0.99969438  0.11563182  0.99871796     0.78000
C19         C  0.11055698  0.00455741  0.99597993     0.78500
C20         C  0.00043769  0.00021366  0.11148900     0.77500
C21         C  0.99651592  0.89136422  0.00037679     0.77800
C22         C  0.99445394  0.99943417  0.88733156     0.79000
C23         C  0.88503491  0.00771811  0.00199835     0.78000
N24         N  0.99904831  0.95382093  0.54254862    -0.35700
N25         N  0.99964549  0.95440944  0.45483966    -0.56300
N26         N  0.99668530  0.04497997  0.45635129    -0.35700
N27         N  0.99785045  0.04423488  0.54413704    -0.56300
C28         C  0.99342371  0.91336690  0.53543163     0.27900
C29         C  0.99089979  0.96045846  0.58251741     0.27900
C30         C  0.00319925  0.03859819  0.41610993     0.27900
C31         C  0.00168067  0.08553741  0.46327840     0.27900
C32         C  0.00323348  0.91357005  0.46002081     0.36500
C33         C  0.00303999  0.96167245  0.41440509     0.36500
C34         C  0.99537713  0.03716054  0.58460683     0.36500
C35         C  0.99627145  0.08516958  0.53913013     0.36500
C36         C  0.98173091  0.89433093  0.57136897    -0.21000
C37         C  0.98065306  0.92370063  0.60098040    -0.21000
C38         C  0.01194909  0.07557787  0.39728859    -0.21000
C39         C  0.01097529  0.10503142  0.42692729    -0.21000
C40         C  0.00981866  0.89504369  0.42265871    -0.22100
C41         C  0.00846872  0.92510064  0.39385475    -0.22100
C42         C  0.99191469  0.07392704  0.60533267    -0.22100
C43         C  0.99252563  0.10420932  0.57659495    -0.22100
C44         C  0.99892213  0.89270608  0.49774636    -0.17400
C45         C  0.99371071  0.99825158  0.60341541    -0.17400
C46         C  0.99848070  0.10580500  0.50133558    -0.17400
C47         C  0.00242292  0.00056437  0.39545217    -0.17400
H48         H  0.97421028  0.86254832  0.57604842     0.15500
H49         H  0.97278695  0.91807519  0.63249667     0.15500
H50         H  0.01937683  0.08084215  0.36553935     0.15500
H51         H  0.01726668  0.13710142  0.42225945     0.15500
H52         H  0.01536689  0.86327376  0.41619930     0.13800
H53         H  0.01197102  0.92002068  0.36150395     0.13800
H54         H  0.98802704  0.07864643  0.63775252     0.13800
H55         H  0.98994275  0.13650844  0.58268858     0.13800
H56         H  0.01160994  0.97501804  0.52262071     0.27000
H57         H  0.98633784  0.02324164  0.47689599     0.27000
N58         N  0.45547355  0.99860709  0.03925578    -0.35700
N59         N  0.45345205  0.00220850  0.94877452    -0.56300
N60         N  0.54076956  0.00001942  0.94682079    -0.35700
N61         N  0.54253747  0.00382900  0.03743560    -0.56300
C62         C  0.41588100  0.00739219  0.03234632     0.27900
C63         C  0.46302865  0.00687254  0.07905227     0.27900
C64         C  0.53270087  0.00886376  0.90723491     0.27900
C65         C  0.57968858  0.01154909  0.95406165     0.27900
C66         C  0.41390505  0.99408927  0.95725529     0.36500
C67         C  0.45874877  0.99442572  0.90850776     0.36500
C68         C  0.53752798  0.99580382  0.07769247     0.36500
C69         C  0.58231857  0.99744258  0.02894522     0.36500
C70         C  0.39807018  0.02147213  0.06812561    -0.21000
C71         C  0.42779358  0.02107468  0.09757371    -0.21000
C72         C  0.56690739  0.02610361  0.88918626    -0.21000
C73         C  0.59649284  0.02791525  0.91871458    -0.21000
C74         C  0.39405593  0.98119682  0.92225735    -0.22100
C75         C  0.42247469  0.98136276  0.89141435    -0.22100
C76         C  0.57421962  0.98428937  0.09481577    -0.22100
C77         C  0.60259029  0.98521595  0.06393916    -0.22100
C78         C  0.39474071  0.00044024  0.99542765    -0.17400
C79         C  0.50049114  0.00036240  0.09933037    -0.17400
C80         C  0.60121847  0.00543475  0.99092031    -0.17400
C81         C  0.49557076  0.00075015  0.88682571    -0.17400
H82         H  0.36678857  0.03087424  0.07269110     0.15500
H83         H  0.42385792  0.03029509  0.12901337     0.15500
H84         H  0.57014298  0.03673223  0.85809845     0.15500
H85         H  0.62695971  0.04001284  0.91454161     0.15500
H86         H  0.36235350  0.97250100  0.91922797     0.13800
H87         H  0.41700207  0.97272227  0.86007836     0.13800
H88         H  0.57997866  0.97601468  0.12620451     0.13800
H89         H  0.63455305  0.97780520  0.06702710     0.13800
H90         H  0.47469121  0.98350805  0.01905906     0.27000
H91         H  0.52244897  0.98316278  0.96660762     0.27000
N92         N  0.95827472  0.54632008  0.00803877    -0.35700
N93         N  0.96073932  0.45866319  0.00267149    -0.56300
N94         N  0.05066808  0.46115275  0.00819251    -0.35700
N95         N  0.04864113  0.54882791  0.00750146    -0.56300
C96         C  0.91924081  0.53818142  0.99712523     0.27900
C97         C  0.96589072  0.58579852  0.99857152     0.27900
C98         C  0.04446927  0.42167340  0.99802584     0.27900
C99         C  0.09084403  0.46955800  0.00231408     0.27900
C100        C  0.91990071  0.46333566  0.00723573     0.36500
C101        C  0.96858217  0.41859016  0.00813864     0.36500
C102        C  0.03911271  0.58738263  0.01829775     0.36500
C103        C  0.08785426  0.54291879  0.01886946     0.36500
C104        C  0.90171727  0.57289994  0.98095228    -0.21000
C105        C  0.93119001  0.60275024  0.98133863    -0.21000
C106        C  0.08141721  0.40467997  0.98608990    -0.21000
C107        C  0.11047692  0.43493201  0.98845670    -0.21000
C108        C  0.90170659  0.42610387  0.01544798    -0.22100
C109        C  0.93237164  0.39776836  0.01573085    -0.22100
C110        C  0.07215343  0.60557075  0.03746728    -0.22100
C111        C  0.10316649  0.57759119  0.03730531    -0.22100
C112        C  0.89872567  0.50046860  0.00186821    -0.17400
C113        C  0.00242995  0.60731630  0.00748982    -0.17400
C114        C  0.11039334  0.50709003  0.01119701    -0.17400
C115        C  0.00718305  0.39991859  0.00258596    -0.17400
H116        H  0.87109733  0.57619267  0.96924533     0.15500
H117        H  0.92721489  0.63329834  0.96970066     0.15500
H118        H  0.08739963  0.37356701  0.97718511     0.15500
H119        H  0.14252045  0.43153558  0.98129254     0.15500
H120        H  0.86965884  0.41979222  0.02032012     0.13800
H121        H  0.92808148  0.36539439  0.02029252     0.13800
H122        H  0.07389452  0.63588540  0.05029506     0.13800
H123        H  0.13334908  0.58207055  0.04976641     0.13800
H124        H  0.97734874  0.52735728  0.02471574     0.27000
H125        H  0.02953161  0.47979045  0.02266263     0.27000
N126        N  0.95939435  0.54493284  0.51665170    -0.35700
N127        N  0.04643077  0.54317701  0.50723105    -0.56300
N128        N  0.04399516  0.45298267  0.50927468    -0.35700
N129        N  0.95679467  0.45452371  0.51388055    -0.56300
C130        C  0.96654380  0.58478227  0.50761521     0.27900
C131        C  0.91906751  0.53786994  0.51129677     0.27900
C132        C  0.08220719  0.46029513  0.49542058     0.27900
C133        C  0.03496237  0.41365749  0.50011285     0.27900
C134        C  0.04226935  0.58390186  0.51281920     0.36500
C135        C  0.08680609  0.53513586  0.50863051     0.36500
C136        C  0.91770346  0.46256998  0.52404049     0.36500
C137        C  0.96235620  0.41411791  0.52036334     0.36500
C138        C  0.92994153  0.60317790  0.49730979    -0.21000
C139        C  0.90033910  0.57361684  0.49901831    -0.21000
C140        C  0.09749139  0.42546099  0.47703588    -0.21000
C141        C  0.06763137  0.39613240  0.47979133    -0.21000
C142        C  0.08045676  0.60171534  0.51704276    -0.22100
C143        C  0.10845693  0.57086840  0.51508159    -0.22100
C144        C  0.89841073  0.42712772  0.53708160    -0.22100
C145        C  0.92670956  0.39649517  0.53484233    -0.22100
C146        C  0.00475421  0.60529183  0.51032527    -0.17400
C147        C  0.89823209  0.50064345  0.51896346    -0.17400
C148        C  0.99863080  0.39282470  0.51108863    -0.17400
C149        C  0.10469458  0.49669776  0.50095717    -0.17400
H150        H  0.92434881  0.63458129  0.48937415     0.15500
H151        H  0.86849664  0.57827897  0.49203516     0.15500
H152        H  0.12713411  0.42159297  0.46296100     0.15500
H153        H  0.06978816  0.36545142  0.46793425     0.15500
H154        H  0.08808615  0.63359264  0.52004697     0.13800
H155        H  0.14115554  0.57472638  0.51707278     0.13800
H156        H  0.86712733  0.42360789  0.54714695     0.13800
H157        H  0.92146395  0.36492975  0.54289648     0.13800
H158        H  0.97976392  0.52460280  0.52967558     0.27000
H159        H  0.02720298  0.47226169  0.52804448     0.27000
Zn160      Zn  0.46908082  0.53083933  0.46332354     1.49700
Zn161      Zn  0.53367512  0.53300791  0.53618910     1.49400
Zn162      Zn  0.46595168  0.46348742  0.53362602     1.49100
Zn163      Zn  0.53875513  0.46349643  0.46847548     1.49500
O164        O  0.50184079  0.49774669  0.50035910    -1.83200
O165        O  0.47909600  0.59065367  0.47274794    -0.73900
O166        O  0.51830869  0.52441866  0.59484380    -0.73700
O167        O  0.40710658  0.47504300  0.52149984    -0.73200
O168        O  0.52399721  0.59179618  0.52337693    -0.73900
O169        O  0.40900172  0.52066412  0.47136017    -0.73500
O170        O  0.47465805  0.47246819  0.59376592    -0.74100
O171        O  0.52560944  0.40403617  0.47624034    -0.73500
O172        O  0.59393207  0.52210655  0.53090700    -0.74200
O173        O  0.47537839  0.40439706  0.52201858    -0.73600
O174        O  0.59662685  0.47240206  0.48495144    -0.74100
O175        O  0.53537036  0.47580542  0.40855428    -0.74000
O176        O  0.48296510  0.51857023  0.40493283    -0.73800
C177        C  0.50149430  0.61002731  0.49774357     0.78000
C178        C  0.49560804  0.49872874  0.61313616     0.78500
C179        C  0.38920500  0.49793491  0.49594703     0.77500
C180        C  0.49979823  0.38542853  0.49861105     0.77800
C181        C  0.61403493  0.49682790  0.50945665     0.79000
C182        C  0.51062723  0.49729854  0.38808942     0.78000
N183        N  0.45885727  0.51020691  0.95883074    -0.35700
N184        N  0.46048462  0.50781787  0.04608969    -0.56300
N185        N  0.55110108  0.51056462  0.04378896    -0.35700
N186        N  0.54931526  0.50768723  0.95641215    -0.56300
C187        C  0.41865895  0.50337717  0.96673498     0.27900
C188        C  0.46559547  0.50131340  0.91908553     0.27900
C189        C  0.54337941  0.49953473  0.08279971     0.27900
C190        C  0.59036427  0.50041674  0.03559529     0.27900
C191        C  0.42031844  0.51587231  0.04110766     0.36500
C192        C  0.46907880  0.51574559  0.08552393     0.36500
C193        C  0.54151334  0.51316217  0.91632228     0.36500
C194        C  0.59005612  0.51303469  0.96131255     0.36500
C195        C  0.39956292  0.49041458  0.93153066    -0.21000
C196        C  0.42894110  0.48926490  0.90151161    -0.21000
C197        C  0.57803354  0.48202399  0.09943660    -0.21000
C198        C  0.60767843  0.48275505  0.06972257    -0.21000
C199        C  0.40335314  0.52907228  0.07744015    -0.22100
C200        C  0.43427707  0.52942046  0.10545908    -0.22100
C201        C  0.57780847  0.52143256  0.89576667    -0.22100
C202        C  0.60828656  0.52183501  0.92426433    -0.22100
C203        C  0.39850937  0.50983145  0.00452500    -0.17400
C204        C  0.50292168  0.50714652  0.89750610    -0.17400
C205        C  0.61121462  0.50741229  0.99837198    -0.17400
C206        C  0.50677748  0.50703495  0.10452470    -0.17400
H207        H  0.36766993  0.48282981  0.92770248     0.15500
H208        H  0.42327759  0.48105189  0.87015118     0.15500
H209        H  0.58168400  0.46977629  0.12983349     0.15500
H210        H  0.63833306  0.47107025  0.07277313     0.15500
H211        H  0.37205843  0.53781123  0.08314344     0.13800
H212        H  0.43123350  0.53853423  0.13700881     0.13800
H213        H  0.58256797  0.52577405  0.86345282     0.13800
H214        H  0.64029670  0.52717810  0.91810970     0.13800
H215        H  0.47965117  0.52434033  0.97801944     0.27000
H216        H  0.53198074  0.52792539  0.02549686     0.27000
N217        N  0.49993931  0.04158738  0.44811586    -0.35700
N218        N  0.49310093  0.04168662  0.53840901    -0.56300
N219        N  0.49585480  0.95411697  0.53819068    -0.35700
N220        N  0.49429841  0.95411888  0.44751304    -0.56300
C221        C  0.49146175  0.08111676  0.45587321     0.27900
C222        C  0.49223843  0.03499298  0.40802744     0.27900
C223        C  0.48693007  0.96076376  0.57811847     0.27900
C224        C  0.48788230  0.91445160  0.53028225     0.27900
C225        C  0.50153257  0.08142405  0.53147438     0.36500
C226        C  0.49819271  0.03555403  0.57892620     0.36500
C227        C  0.50279546  0.96037365  0.40747394     0.36500
C228        C  0.50185085  0.91433156  0.45496904     0.36500
C229        C  0.47817188  0.09979919  0.42035447    -0.21000
C230        C  0.47873038  0.07073730  0.39020856    -0.21000
C231        C  0.47353304  0.92478479  0.59582768    -0.21000
C232        C  0.47397747  0.89563182  0.56569816    -0.21000
C233        C  0.51187090  0.10054563  0.56774274    -0.22100
C234        C  0.50959934  0.07154351  0.59776813    -0.22100
C235        C  0.51540706  0.92447124  0.38939939    -0.22100
C236        C  0.51518999  0.89543564  0.41946890    -0.22100
C237        C  0.49759562  0.10140132  0.49347605    -0.17400
C238        C  0.49863517  0.99796010  0.38685998    -0.17400
C239        C  0.49493274  0.89420879  0.49269491    -0.17400
C240        C  0.49176625  0.99808680  0.59929521    -0.17400
H241        H  0.46893995  0.13118281  0.41644344     0.15500
H242        H  0.46998115  0.07543791  0.35878749     0.15500
H243        H  0.46423287  0.92002174  0.62717762     0.15500
H244        H  0.46500979  0.86409646  0.56958255     0.15500
H245        H  0.52027607  0.13213690  0.57222834     0.13800
H246        H  0.51608465  0.07638433  0.62972236     0.13800
H247        H  0.52457760  0.91979592  0.35802112     0.13800
H248        H  0.52429830  0.86403213  0.41550926     0.13800
H249        H  0.51444865  0.02179949  0.46799072     0.27000
H250        H  0.51052549  0.97406866  0.51844767     0.27000
C251        C  0.51203192  0.28104796  0.48170531     0.30600
C252        C  0.52891365  0.24602286  0.46411581    -0.35700
C253        C  0.51384101  0.20883234  0.47884057     0.16600
C254        C  0.48421587  0.20627006  0.50878501     0.22400
C255        C  0.46729835  0.24126758  0.52633488    -0.33800
C256        C  0.48232940  0.27844878  0.51157601     0.16500
O257        O  0.52198747  0.31897710  0.47296288    -0.25800
C258        C  0.49830235  0.34086724  0.49751675     0.06300
C259        C  0.47292272  0.31731198  0.52215562    -0.30700
O260        O  0.47461379  0.16838944  0.51793613    -0.22500
C261        C  0.49827046  0.14643487  0.49341724    -0.02500
C262        C  0.52348391  0.16993986  0.46854697    -0.17000
H263        H  0.55222541  0.24765814  0.44071125     0.21000
H264        H  0.44412050  0.23961501  0.54987375     0.19400
H265        H  0.45110711  0.32739007  0.54483409     0.19300
H266        H  0.54558872  0.15972450  0.44621901     0.15200
C267        C  0.50884246  0.78958198  0.51034428     0.30600
C268        C  0.52465468  0.75504415  0.52969374    -0.35700
C269        C  0.51252246  0.71745256  0.51351722     0.16600
C270        C  0.48658139  0.71403704  0.48063342     0.22400
C271        C  0.47060969  0.74858049  0.46142649    -0.33800
C272        C  0.48271811  0.78616100  0.47762807     0.16500
O273        O  0.51651816  0.82775549  0.52005761    -0.25800
C274        C  0.49507068  0.84906008  0.49316825     0.06300
C275        C  0.47309919  0.82473430  0.46629521    -0.30700
O276        O  0.47935532  0.67585792  0.47054687    -0.22500
C277        C  0.50101607  0.65462353  0.49728278    -0.02500
C278        C  0.52223408  0.67886136  0.52477654    -0.17000
H279        H  0.54509244  0.75732463  0.55541748     0.21000
H280        H  0.45025843  0.74631727  0.43563388     0.19400
H281        H  0.45320327  0.83421135  0.44183631     0.19300
H282        H  0.54178421  0.66937509  0.54951364     0.15200
C283        C  0.49557158  0.48753264  0.28371830     0.30600
C284        C  0.47448440  0.47633286  0.24850410    -0.35700
C285        C  0.49212481  0.48869146  0.21168111     0.16600
C286        C  0.52781679  0.51098423  0.20948735     0.22400
C287        C  0.54946146  0.52153669  0.24477562    -0.33800
C288        C  0.53202777  0.50869608  0.28176167     0.16500
O289        O  0.48356736  0.48049149  0.32134391    -0.25800
C290        C  0.51299579  0.49668288  0.34377694     0.06300
C291        C  0.54414835  0.51447627  0.32101791    -0.30700
O292        O  0.53774137  0.52058125  0.17171378    -0.22500
C293        C  0.50801751  0.50407828  0.14957633    -0.02500
C294        C  0.47921748  0.48328731  0.17289187    -0.17000
H295        H  0.44599063  0.45963434  0.24976675     0.21000
H296        H  0.57755639  0.53889882  0.24351105     0.19400
H297        H  0.57089278  0.53047715  0.33187090     0.19300
H298        H  0.45245895  0.46687002  0.16269878     0.15200
C299        C  0.50295580  0.52028723  0.71710816     0.30600
C300        C  0.51351201  0.54339252  0.75137598    -0.35700
C301        C  0.50623104  0.52494114  0.78918612     0.16600
C302        C  0.49022458  0.48618447  0.79309676     0.22400
C303        C  0.47889162  0.46332344  0.75878860    -0.33800
C304        C  0.48572100  0.48200792  0.72088185     0.16500
O305        O  0.50837268  0.53118581  0.67885591    -0.25800
C306        C  0.49400193  0.49973847  0.65776683     0.06300
C307        C  0.47921284  0.46830046  0.68224554    -0.30700
O308        O  0.48732904  0.47450283  0.83144844    -0.22500
C309        C  0.50129849  0.50636819  0.85232729    -0.02500
C310        C  0.51299238  0.53880522  0.82756795    -0.17000
H311        H  0.52683528  0.57350462  0.74872087     0.21000
H312        H  0.46603291  0.43301278  0.76145217     0.19400
H313        H  0.46664478  0.43924119  0.67290736     0.19300
H314        H  0.52500347  0.56818366  0.83663942     0.15200
C315        C  0.20960075  0.50810021  0.48148197     0.30600
C316        C  0.24470990  0.52519474  0.46376335    -0.35700
C317        C  0.28199288  0.51125868  0.47908510     0.16600
C318        C  0.28451244  0.48253079  0.50974042     0.22400
C319        C  0.24944701  0.46530649  0.52730080    -0.33800
C320        C  0.21221659  0.47914047  0.51191140     0.16500
O321        O  0.17160739  0.51767100  0.47286132    -0.25800
C322        C  0.14968961  0.49437529  0.49798023     0.06300
C323        C  0.17331461  0.46965943  0.52284397    -0.30700
O324        O  0.32242054  0.47419465  0.51970370    -0.22500
C325        C  0.34451290  0.49779724  0.49507720    -0.02500
C326        C  0.32102645  0.52156750  0.46911452    -0.17000
H327        H  0.24306309  0.54803887  0.44001664     0.21000
H328        H  0.25108435  0.44292775  0.55149056     0.19400
H329        H  0.16317729  0.44874440  0.54635437     0.19300
H330        H  0.33124372  0.54324585  0.44634105     0.15200
C331        C  0.79354234  0.48417229  0.50448022     0.30600
C332        C  0.75910790  0.46543329  0.48771628    -0.35700
C333        C  0.72148030  0.48053904  0.50088535     0.16600
C334        C  0.71783708  0.51199566  0.52859245     0.22400
C335        C  0.75236867  0.53069668  0.54550449    -0.33800
C336        C  0.79010271  0.51548492  0.53237048     0.16500
O337        O  0.83166570  0.47495964  0.49618742    -0.25800
C338        C  0.85306137  0.50068699  0.51900138     0.06300
C339        C  0.82881338  0.52651097  0.54237921    -0.30700
O340        O  0.67951639  0.52171172  0.53584847    -0.22500
C341        C  0.65854653  0.49607107  0.51247650    -0.02500
C342        C  0.68305317  0.46971698  0.49016429    -0.17000
H343        H  0.76150046  0.44092894  0.46576948     0.21000
H344        H  0.74999074  0.55545855  0.56715703     0.19400
H345        H  0.83841739  0.54995467  0.56349365     0.19300
H346        H  0.67385790  0.44643598  0.46868076     0.15200
C347        C  0.79268010  0.51649057  0.01348186     0.30600
C348        C  0.75734504  0.53366248  0.03064196    -0.35700
C349        C  0.71997540  0.52040675  0.01446179     0.16600
C350        C  0.71740628  0.49246064  0.98318133     0.22400
C351        C  0.75282844  0.47526048  0.96595976    -0.33800
C352        C  0.79027013  0.48820418  0.98248398     0.16500
O353        O  0.83066049  0.52436709  0.02431726    -0.25800
C354        C  0.85313793  0.50046640  0.00035350     0.06300
C355        C  0.82955838  0.47741118  0.97351610    -0.30700
O356        O  0.67921264  0.48430026  0.97295571    -0.22500
C357        C  0.65692973  0.50715128  0.99822342    -0.02500
C358        C  0.68084544  0.53023494  0.02465915    -0.17000
H359        H  0.75887461  0.55563180  0.05518760     0.21000
H360        H  0.75129324  0.45306500  0.94162070     0.19400
H361        H  0.83995360  0.45607313  0.95060440     0.19300
H362        H  0.67072324  0.55113451  0.04809604     0.15200
C363        C  0.29165713  0.52437030  0.99500436     0.30600
C364        C  0.25557845  0.54266492  0.98084162    -0.35700
C365        C  0.21865736  0.52669101  0.99620556     0.16600
C366        C  0.21720551  0.49462457  0.02338424     0.22400
C367        C  0.25328972  0.47666441  0.03794234    -0.33800
C368        C  0.29022338  0.49283892  0.02280997     0.16500
O369        O  0.32946652  0.53429725  0.98443742    -0.25800
C370        C  0.35276099  0.50908267  0.00609526     0.06300
C371        C  0.32984662  0.48261170  0.03046987    -0.30700
O372        O  0.17937482  0.48355982  0.03260699    -0.22500
C373        C  0.15609504  0.50917754  0.01140488    -0.02500
C374        C  0.17904196  0.53674695  0.98832789    -0.17000
H375        H  0.25622871  0.56751971  0.95914276     0.21000
H376        H  0.25262209  0.45159429  0.05939202     0.19400
H377        H  0.34091520  0.45919048  0.05082137     0.19300
H378        H  0.16800079  0.56015592  0.96794482     0.15200
C379        C  0.50679574  0.98579099  0.70536578     0.30600
C380        C  0.52639441  0.97174673  0.74071078    -0.35700
C381        C  0.51065582  0.98569852  0.77809470     0.16800
C382        C  0.47769826  0.01156944  0.78069187     0.22400
C383        C  0.45821789  0.02588128  0.74528287    -0.33800
C384        C  0.47411843  0.01206220  0.70781880     0.16500
O385        O  0.51679669  0.97679868  0.66732136    -0.25800
C386        C  0.49041885  0.99781836  0.64487732     0.06300
C387        C  0.46307252  0.02027057  0.66851670    -0.30700
O388        O  0.46784949  0.02035287  0.81887998    -0.22500
C389        C  0.49507608  0.00006414  0.84113893    -0.02500
C390        C  0.52240289  0.97798269  0.81720628    -0.17000
H391        H  0.55224220  0.95138623  0.73916780     0.21000
H392        H  0.43250348  0.04641313  0.74682516     0.19400
H393        H  0.43889270  0.04003824  0.65812420     0.19300
H394        H  0.54714629  0.95876293  0.82729766     0.15200
C395        C  0.51581537  0.01210577  0.20566228     0.30600
C396        C  0.53243291  0.02890983  0.24146137    -0.35700
C397        C  0.51693790  0.01366685  0.27858838     0.16600
C398        C  0.48743585  0.98364553  0.28040641     0.22400
C399        C  0.47083454  0.96689733  0.24465794    -0.33800
C400        C  0.48599807  0.98241021  0.20759245     0.16500
O401        O  0.52528702  0.02222931  0.16768296    -0.25800
C402        C  0.50091658  0.99894299  0.14492980     0.06300
C403        C  0.47593285  0.97353215  0.16825992    -0.30700
O404        O  0.47723868  0.97396941  0.31826705    -0.22500
C405        C  0.50021995  0.99836514  0.34122895    -0.02500
C406        C  0.52559479  0.02364800  0.31807086    -0.17000
H407        H  0.55555603  0.05250054  0.24045105     0.21000
H408        H  0.44740251  0.94361462  0.24566797     0.19400
H409        H  0.45350917  0.95176654  0.15763816     0.19300
H410        H  0.54724578  0.04609227  0.32888139     0.15200
C411        C  0.01265242  0.78734302  0.51762483     0.30600
C412        C  0.02706992  0.75317477  0.53899887    -0.35700
C413        C  0.01577345  0.71489592  0.52341975     0.16600
C414        C  0.99255876  0.71050982  0.48877337     0.22400
C415        C  0.97724237  0.74467640  0.46801396    -0.33800
C416        C  0.98794495  0.78295586  0.48403061     0.16500
O417        O  0.01996676  0.82593225  0.52652498    -0.25800
C418        C  0.99939014  0.84689180  0.49851134     0.06300
C419        C  0.97816002  0.82143868  0.47180359    -0.30700
O420        O  0.98637443  0.67190951  0.47912358    -0.22500
C421        C  0.00528015  0.65099000  0.50831507    -0.02500
C422        C  0.02372543  0.67641123  0.53696572    -0.17000
H423        H  0.04579521  0.75622795  0.56591608     0.21000
H424        H  0.95827986  0.74162323  0.44126029     0.19400
H425        H  0.95829302  0.82998330  0.44698663     0.19300
H426        H  0.04025454  0.66777323  0.56410206     0.15200
C427        C  0.01581688  0.21149012  0.51426730     0.30600
C428        C  0.03636812  0.24666364  0.52765986    -0.35700
C429        C  0.01735025  0.28407555  0.51934464     0.16600
C430        C  0.98063787  0.28683255  0.49920912     0.22400
C431        C  0.96007513  0.25164425  0.48579007    -0.33800
C432        C  0.97914797  0.21420489  0.49398683     0.16500
O433        O  0.02779683  0.17337843  0.51929851    -0.25800
C434        C  0.99855098  0.15131757  0.50172747     0.06300
C435        C  0.96755467  0.17514262  0.48543805    -0.30700
O436        O  0.96876770  0.32498911  0.49409462    -0.22500
C437        C  0.99833617  0.34714563  0.51108598    -0.02500
C438        C  0.02915816  0.32308766  0.52756129    -0.17000
H439        H  0.06521609  0.24498893  0.54345615     0.21000
H440        H  0.93127374  0.25333810  0.46991426     0.19400
H441        H  0.94018189  0.16498727  0.47013414     0.19300
H442        H  0.05659026  0.33303292  0.54290897     0.15200
C443        C  0.01706362  0.78749759  0.99511214     0.30600
C444        C  0.04067481  0.75265414  0.98834491    -0.35700
C445        C  0.02090343  0.71536109  0.99504079     0.16600
C446        C  0.98102027  0.71254338  0.00822509     0.22400
C447        C  0.95700361  0.74733883  0.01373520    -0.33800
C448        C  0.97651591  0.78463770  0.00637106     0.16500
O449        O  0.02963562  0.82548748  0.99193376    -0.25800
C450        C  0.99646542  0.84703594  0.00039974     0.06300
C451        C  0.96241353  0.82341426  0.00931535    -0.30700
O452        O  0.96944573  0.67465780  0.01472564    -0.22500
C453        C  0.00209308  0.65266728  0.00498339    -0.02500
C454        C  0.03480931  0.67659795  0.99178952    -0.17000
H455        H  0.07231989  0.75449984  0.97900579     0.21000
H456        H  0.92549515  0.74547131  0.02351883     0.19400
H457        H  0.93211059  0.83344239  0.01770671     0.19300
H458        H  0.06462338  0.66694085  0.98143823     0.15200
C459        C  0.00976963  0.22038560  0.98104589     0.30600
C460        C  0.01892331  0.25587919  0.95892122    -0.35700
C461        C  0.01330369  0.29273707  0.97977958     0.16600
C462        C  0.99996856  0.29452189  0.01971969     0.22400
C463        C  0.99038731  0.25910906  0.04165600    -0.33800
C464        C  0.99561062  0.22233579  0.02070249     0.16500
O465        O  0.01317840  0.18259659  0.96783709    -0.25800
C466        C  0.00060274  0.16024476  0.99936018     0.06300
C467        C  0.98912521  0.18332044  0.03296404    -0.30700
O468        O  0.99686109  0.33215584  0.03323513    -0.22500
C469        C  0.00828603  0.35482560  0.00153829    -0.02500
C470        C  0.01849846  0.33196594  0.96730860    -0.17000
H471        H  0.02960999  0.25483930  0.92767617     0.21000
H472        H  0.97949620  0.26016302  0.07283286     0.19400
H473        H  0.97823766  0.17278085  0.06234996     0.19300
H474        H  0.02787076  0.34279764  0.93752391     0.15200
C475        C  0.78122109  0.99721894  0.98177401     0.30600
C476        C  0.74698131  0.98182660  0.96155676    -0.35700
C477        C  0.70926306  0.99588945  0.97558479     0.16600
C478        C  0.70544212  0.02320418  0.00735792     0.22400
C479        C  0.73976609  0.03884629  0.02744778    -0.33800
C480        C  0.77758635  0.02475283  0.01339088     0.16500
O481        O  0.81932946  0.98765838  0.97394158    -0.25800
C482        C  0.84048230  0.00939342  0.00074145     0.06300
C483        C  0.81619204  0.03311106  0.02615740    -0.30700
O484        O  0.66710234  0.03088071  0.01646430    -0.22500
C485        C  0.64621218  0.00833637  0.99003406    -0.02500
C486        C  0.67085508  0.98594687  0.96383628    -0.17000
H487        H  0.74956922  0.96002632  0.93693835     0.21000
H488        H  0.73713307  0.06004510  0.05257979     0.19400
H489        H  0.82560226  0.05332382  0.05045306     0.19300
H490        H  0.66167518  0.96457187  0.94045973     0.15200
C491        C  0.28996114  0.01640392  0.98248827     0.30600
C492        C  0.25506555  0.03467810  0.96627174    -0.35700
C493        C  0.21773685  0.01961117  0.98072857     0.16600
C494        C  0.21492246  0.98861154  0.00910173     0.22400
C495        C  0.24983121  0.97030564  0.02533450    -0.33800
C496        C  0.28718010  0.98552356  0.01100945     0.16500
O497        O  0.32793878  0.02577169  0.97326730    -0.25800
C498        C  0.34972241  0.00080976  0.99643159     0.06300
C499        C  0.32605392  0.97498134  0.02047967    -0.30700
O500        O  0.17690142  0.97932272  0.01825851    -0.22500
C501        C  0.15516415  0.00469671  0.99544624    -0.02500
C502        C  0.17890432  0.03048622  0.97147898    -0.17000
H503        H  0.25690358  0.05897372  0.94400007     0.21000
H504        H  0.24799388  0.94602036  0.04762163     0.19400
H505        H  0.33615484  0.95178455  0.04159125     0.19300
H506        H  0.16896941  0.05376756  0.95037874     0.15200
C507        C  0.97687606  0.98695487  0.70861920     0.30600
C508        C  0.95590923  0.97545633  0.74413860    -0.35700
C509        C  0.97476662  0.98594001  0.78092229     0.16600
C510        C  0.01148172  0.00661052  0.78256820     0.22400
C511        C  0.03266997  0.01758602  0.74710465    -0.33800
C512        C  0.01403011  0.00677349  0.71041550     0.16500
O513        O  0.96451847  0.98118205  0.67092607    -0.25800
C514        C  0.99438433  0.99716805  0.64844918     0.06300
C515        C  0.02608068  0.01327257  0.67137401    -0.30700
O516        O  0.02310829  0.01417460  0.82012645    -0.22500
C517        C  0.99371047  0.99776785  0.84283369    -0.02500
C518        C  0.96283396  0.97967980  0.82017926    -0.17000
H519        H  0.92686872  0.95973191  0.74316083     0.21000
H520        H  0.06153060  0.03364423  0.74805817     0.19400
H521        H  0.05358367  0.02821500  0.66064928     0.19300
H522        H  0.93546289  0.96461997  0.83107456     0.15200
C523        C  0.01853320  0.98957411  0.29019071     0.30600
C524        C  0.03767885  0.97531618  0.25474452    -0.35700
C525        C  0.01918013  0.98629553  0.21797808     0.16600
C526        C  0.98439388  0.00983066  0.21624491     0.22400
C527        C  0.96493281  0.02356525  0.25170261    -0.33800
C528        C  0.98333467  0.01246096  0.28843531     0.16500
O529        O  0.03059423  0.98305633  0.32781639    -0.25800
C530        C  0.00251639  0.00165429  0.35038857     0.06300
C531        C  0.97239169  0.02051382  0.32754610    -0.30700
O532        O  0.97310226  0.01763149  0.17861994    -0.22500
C533        C  0.00083902  0.99862653  0.15601104    -0.02500
C534        C  0.03015130  0.97840409  0.17878542    -0.17000
H535        H  0.06514907  0.95716409  0.25576356     0.21000
H536        H  0.93755719  0.04185852  0.25070081     0.19400
H537        H  0.94611045  0.03726834  0.33835450     0.19300
H538        H  0.05615205  0.96120253  0.16799828     0.15200
loop_ 
_geom_bond_atom_site_label_1 
_geom_bond_atom_site_label_2 
_geom_bond_distance 
_geom_bond_site_symmetry_2 
_ccdc_geom_bond_type 
Zn1           O5   1.952   1_554  S
Zn1           O6   2.007       .  S
Zn1          O10   2.007       .  S
Zn1          O17   2.021       .  S
Zn2           O5   1.955   1_455  S
Zn2           O7   2.017       .  S
Zn2           O9   2.014       .  S
Zn2          O13   2.003       .  S
Zn3           O5   1.951   1_464  S
Zn3           O8   2.003       .  S
Zn3          O11   1.993       .  S
Zn3          O14   1.999       .  S
Zn4           O5   1.947   1_565  S
Zn4          O12   2.004       .  S
Zn4          O15   2.007       .  S
Zn4          O16   1.990       .  S
O6           C18   1.273   1_554  A
O7           C19   1.273       .  A
O8           C20   1.272   1_565  A
O9           C18   1.272   1_455  A
O10          C20   1.272   1_655  A
O11          C19   1.269   1_564  A
O12          C21   1.271   1_556  A
O13          C22   1.271   1_445  A
O14          C21   1.270   1_455  A
O15          C22   1.272       .  A
O16          C23   1.269   1_566  A
O17          C23   1.273       .  A
C18         C466   1.464   1_655  S
C19         C501   1.463       .  S
C20         C533   1.461   1_545  S
C21         C450   1.455       .  S
C22         C517   1.461       .  S
C23         C482   1.463       .  S
N24          C29   1.355       .  A
N24          C28   1.360       .  A
N24          H56   1.037   1_655  S
N25          C32   1.356   1_655  A
N25          C33   1.351   1_655  A
N26          C31   1.360   1_655  A
N26          C30   1.353   1_655  A
N26          H57   1.036       .  S
N27          C34   1.349       .  A
N27          C35   1.354       .  A
C28          C36   1.386       .  A
C28          C44   1.421       .  A
C29          C45   1.420       .  A
C29          C37   1.389       .  A
C30          C38   1.390       .  A
C30          C47   1.421       .  A
C31          C46   1.418   1_455  A
C31          C39   1.385       .  A
C32          C44   1.420   1_455  A
C32          C40   1.385       .  A
C33          C47   1.419   1_565  A
C33          C41   1.388       .  A
C34          C42   1.390       .  A
C34          C45   1.418   1_545  A
C35          C43   1.384       .  A
C35          C46   1.414       .  A
C36          C37   1.369       .  A
C36          H48   1.082       .  S
C37          H49   1.080       .  S
C38          C39   1.372       .  A
C38          H50   1.082       .  S
C39          H51   1.082       .  S
C40          C41   1.366       .  A
C40          H52   1.080       .  S
C41          H53   1.080       .  S
C42          C43   1.369       .  A
C42          H54   1.082       .  S
C43          H55   1.082       .  S
C44         C418   1.504       .  S
C45         C514   1.478       .  S
C46         C434   1.493       .  S
C47         C530   1.479       .  S
N58          C63   1.357   1_565  A
N58          C62   1.351   1_565  A
N58          H90   1.039       .  S
N59          C66   1.351   1_545  A
N59          C67   1.356   1_545  A
N60          C65   1.352       .  A
N60          C64   1.358       .  A
N60          H91   1.040   1_545  S
N61          C68   1.355   1_545  A
N61          C69   1.350   1_545  A
C62          C70   1.389       .  A
C62          C78   1.416   1_554  A
C63          C79   1.416       .  A
C63          C71   1.386       .  A
C64          C72   1.385       .  A
C64          C81   1.417       .  A
C65          C80   1.417       .  A
C65          C73   1.389       .  A
C66          C78   1.414   1_565  A
C66          C74   1.388       .  A
C67          C81   1.414   1_565  A
C67          C75   1.384       .  A
C68          C76   1.384       .  A
C68          C79   1.413   1_565  A
C69          C77   1.389       .  A
C69          C80   1.414   1_564  A
C70          C71   1.375       .  A
C70          H82   1.082       .  S
C71          H83   1.082       .  S
C72          C73   1.375       .  A
C72          H84   1.082       .  S
C73          H85   1.082       .  S
C74          C75   1.373       .  A
C74          H86   1.082       .  S
C75          H87   1.082       .  S
C76          C77   1.373       .  A
C76          H88   1.082       .  S
C77          H89   1.082       .  S
C78         C498   1.477       .  S
C79         C402   1.497   1_545  S
C80         C485   1.479       .  S
C81         C389   1.499       .  S
N92          C97   1.354   1_554  A
N92          C96   1.357   1_554  A
N92         H124   1.041       .  S
N93         C100   1.356       .  A
N93         C101   1.353       .  A
N94          C99   1.358       .  A
N94          C98   1.353   1_554  A
N94         H125   1.039       .  S
N95         C102   1.351       .  A
N95         C103   1.355       .  A
C96         C104   1.384       .  A
C96         C112   1.415   1_556  A
C97         C113   1.421   1_656  A
C97         C105   1.391       .  A
C98         C106   1.391       .  A
C98         C115   1.421   1_556  A
C99         C114   1.418       .  A
C99         C107   1.384   1_554  A
C100        C112   1.416       .  A
C100        C108   1.384       .  A
C101        C115   1.419   1_655  A
C101        C109   1.390       .  A
C102        C110   1.388       .  A
C102        C113   1.418       .  A
C103        C111   1.383       .  A
C103        C114   1.413       .  A
C104        C105   1.374       .  A
C104        H116   1.082       .  S
C105        H117   1.081       .  S
C106        C107   1.376       .  A
C106        H118   1.080       .  S
C107        H119   1.082       .  S
C108        C109   1.372       .  A
C108        H120   1.082       .  S
C109        H121   1.081       .  S
C110        C111   1.373       .  A
C110        H122   1.082       .  S
C111        H123   1.082       .  S
C112        C354   1.496       .  S
C113        C453   1.490       .  S
C114        C373   1.500       .  S
C115        C469   1.481       .  S
N126        C131   1.354       .  A
N126        C130   1.360       .  A
N126        H158   1.039       .  S
N127        C134   1.356       .  A
N127        C135   1.352       .  A
N128        C133   1.357       .  A
N128        C132   1.352       .  A
N128        H159   1.040       .  S
N129        C136   1.350       .  A
N129        C137   1.356       .  A
C130        C138   1.389       .  A
C130        C146   1.424   1_655  A
C131        C147   1.419       .  A
C131        C139   1.386       .  A
C132        C140   1.387       .  A
C132        C149   1.414       .  A
C133        C148   1.417   1_455  A
C133        C141   1.386       .  A
C134        C146   1.421       .  A
C134        C142   1.388       .  A
C135        C149   1.415       .  A
C135        C143   1.386       .  A
C136        C144   1.388       .  A
C136        C147   1.415       .  A
C137        C145   1.385       .  A
C137        C148   1.414       .  A
C138        C139   1.371       .  A
C138        H150   1.079       .  S
C139        H151   1.082       .  S
C140        C141   1.373       .  A
C140        H152   1.082       .  S
C141        H153   1.082       .  S
C142        C143   1.370       .  A
C142        H154   1.079       .  S
C143        H155   1.082       .  S
C144        C145   1.372       .  A
C144        H156   1.082       .  S
C145        H157   1.082       .  S
C146        C421   1.501       .  S
C147        C338   1.482       .  S
C148        C437   1.499       .  S
C149        C322   1.481       .  S
Zn160       O164   1.956       .  S
Zn160       O165   2.013       .  S
Zn160       O169   2.014       .  S
Zn160       O176   2.008       .  S
Zn161       O164   1.953       .  S
Zn161       O166   2.006       .  S
Zn161       O168   2.001       .  S
Zn161       O172   2.016       .  S
Zn162       O164   1.954       .  S
Zn162       O167   2.010       .  S
Zn162       O170   2.016       .  S
Zn162       O173   2.001       .  S
Zn163       O164   1.955       .  S
Zn163       O171   2.012       .  S
Zn163       O174   1.996       .  S
Zn163       O175   2.010       .  S
O165        C177   1.272       .  A
O166        C178   1.271       .  A
O167        C179   1.272       .  A
O168        C177   1.272       .  A
O169        C179   1.273       .  A
O170        C178   1.272       .  A
O171        C180   1.272       .  A
O172        C181   1.272       .  A
O173        C180   1.272       .  A
O174        C181   1.271       .  A
O175        C182   1.271       .  A
O176        C182   1.271       .  A
C177        C277   1.464       .  S
C178        C306   1.465       .  S
C179        C325   1.466       .  S
C180        C258   1.463       .  S
C181        C341   1.464       .  S
C182        C290   1.455       .  S
N183        C188   1.354       .  A
N183        C187   1.360       .  A
N183        H215   1.038       .  S
N184        C191   1.355       .  A
N184        C192   1.350       .  A
N185        C190   1.357       .  A
N185        C189   1.352       .  A
N185        H216   1.041       .  S
N186        C193   1.353       .  A
N186        C194   1.357       .  A
C187        C195   1.383       .  A
C187        C203   1.419   1_556  A
C188        C204   1.424       .  A
C188        C196   1.392       .  A
C189        C197   1.389       .  A
C189        C206   1.416       .  A
C190        C205   1.415   1_554  A
C190        C198   1.385       .  A
C191        C203   1.413       .  A
C191        C199   1.383       .  A
C192        C206   1.417       .  A
C192        C200   1.389       .  A
C193        C201   1.391       .  A
C193        C204   1.424       .  A
C194        C202   1.382       .  A
C194        C205   1.415       .  A
C195        C196   1.375       .  A
C195        H207   1.082       .  S
C196        H208   1.080       .  S
C197        C198   1.374       .  A
C197        H209   1.082       .  S
C198        H210   1.082       .  S
C199        C200   1.372       .  A
C199        H211   1.082       .  S
C200        H212   1.082       .  S
C201        C202   1.372       .  A
C201        H213   1.080       .  S
C202        H214   1.082       .  S
C203        C370   1.501       .  S
C204        C309   1.483       .  S
C205        C357   1.499       .  S
C206        C293   1.482       .  S
N217        C222   1.357       .  A
N217        C221   1.352       .  A
N217        H249   1.038       .  S
N218        C225   1.351       .  A
N218        C226   1.355       .  A
N219        C224   1.352       .  A
N219        C223   1.359       .  A
N219        H250   1.036       .  S
N220        C227   1.357       .  A
N220        C228   1.352       .  A
C221        C229   1.389       .  A
C221        C237   1.417       .  A
C222        C238   1.416   1_545  A
C222        C230   1.385       .  A
C223        C231   1.385       .  A
C223        C240   1.417       .  A
C224        C239   1.419       .  A
C224        C232   1.390       .  A
C225        C237   1.414       .  A
C225        C233   1.388       .  A
C226        C240   1.414   1_545  A
C226        C234   1.384       .  A
C227        C235   1.383       .  A
C227        C238   1.413       .  A
C228        C236   1.389       .  A
C228        C239   1.419       .  A
C229        C230   1.374       .  A
C229        H241   1.082       .  S
C230        H242   1.082       .  S
C231        C232   1.376       .  A
C231        H243   1.082       .  S
C232        H244   1.082       .  S
C233        C234   1.371       .  A
C233        H245   1.082       .  S
C234        H246   1.082       .  S
C235        C236   1.371       .  A
C235        H247   1.082       .  S
C236        H248   1.082       .  S
C237        C261   1.478       .  S
C238        C405   1.497       .  S
C239        C274   1.482       .  S
C240        C386   1.496       .  S
C251        C256   1.381       .  A
C251        C252   1.401       .  A
C251        O257   1.317       .  A
C252        C253   1.400       .  A
C252        H263   1.082       .  S
C253        C262   1.358       .  A
C253        C254   1.381       .  A
C254        C255   1.400       .  A
C254        O260   1.315       .  A
C255        C256   1.400       .  A
C255        H264   1.082       .  S
C256        C259   1.358       .  A
O257        C258   1.329       .  A
C258        C259   1.390       .  A
C259        H265   1.083       .  S
O260        C261   1.329       .  A
C261        C262   1.390       .  A
C262        H266   1.082       .  S
C267        C272   1.381       .  A
C267        C268   1.401       .  A
C267        O273   1.316       .  A
C268        C269   1.400       .  A
C268        H279   1.082       .  S
C269        C278   1.358       .  A
C269        C270   1.381       .  A
C270        C271   1.401       .  A
C270        O276   1.317       .  A
C271        C272   1.400       .  A
C271        H280   1.082       .  S
C272        C275   1.357       .  A
O273        C274   1.330       .  A
C274        C275   1.391       .  A
C275        H281   1.082       .  S
O276        C277   1.329       .  A
C277        C278   1.390       .  A
C278        H282   1.083       .  S
C283        C288   1.382       .  A
C283        C284   1.398       .  A
C283        O289   1.314       .  A
C284        C285   1.396       .  A
C284        H295   1.082       .  S
C285        C294   1.354       .  A
C285        C286   1.380       .  A
C286        C287   1.403       .  A
C286        O292   1.317       .  A
C287        C288   1.403       .  A
C287        H296   1.082       .  S
C288        C291   1.362       .  A
O289        C290   1.326       .  A
C290        C291   1.390       .  A
C291        H297   1.082       .  S
O292        C293   1.332       .  A
C293        C294   1.390       .  A
C294        H298   1.083       .  S
C299        C304   1.381       .  A
C299        C300   1.400       .  A
C299        O305   1.316       .  A
C300        C301   1.399       .  A
C300        H311   1.082       .  S
C301        C310   1.358       .  A
C301        C302   1.380       .  A
C302        C303   1.404       .  A
C302        O308   1.318       .  A
C303        C304   1.403       .  A
C303        H312   1.082       .  S
C304        C307   1.362       .  A
O305        C306   1.329       .  A
C306        C307   1.391       .  A
C307        H313   1.082       .  S
O308        C309   1.331       .  A
C309        C310   1.390       .  A
C310        H314   1.083       .  S
C315        C320   1.381       .  A
C315        C316   1.403       .  A
C315        O321   1.318       .  A
C316        C317   1.402       .  A
C316        H327   1.082       .  S
C317        C326   1.362       .  A
C317        C318   1.381       .  A
C318        C319   1.401       .  A
C318        O324   1.317       .  A
C319        C320   1.400       .  A
C319        H328   1.082       .  S
C320        C323   1.359       .  A
O321        C322   1.330       .  A
C322        C323   1.390       .  A
C323        H329   1.082       .  S
O324        C325   1.330       .  A
C325        C326   1.391       .  A
C326        H330   1.082       .  S
C331        C336   1.381       .  A
C331        C332   1.399       .  A
C331        O337   1.315       .  A
C332        C333   1.398       .  A
C332        H343   1.082       .  S
C333        C342   1.356       .  A
C333        C334   1.381       .  A
C334        C335   1.403       .  A
C334        O340   1.318       .  A
C335        C336   1.402       .  A
C335        H344   1.082       .  S
C336        C339   1.361       .  A
O337        C338   1.329       .  A
C338        C339   1.392       .  A
C339        H345   1.082       .  S
O340        C341   1.330       .  A
C341        C342   1.389       .  A
C342        H346   1.083       .  S
C347        C352   1.379   1_554  A
C347        C348   1.406       .  A
C347        O353   1.322       .  A
C348        C349   1.406       .  A
C348        H359   1.082       .  S
C349        C358   1.365       .  A
C349        C350   1.379   1_554  A
C350        C351   1.409       .  A
C350        O356   1.325       .  A
C351        C352   1.409       .  A
C351        H360   1.082       .  S
C352        C355   1.368       .  A
O353        C354   1.333       .  A
C354        C355   1.396   1_554  A
C355        H361   1.082       .  S
O356        C357   1.335       .  A
C357        C358   1.394   1_556  A
C358        H362   1.082       .  S
C363        C368   1.379   1_556  A
C363        C364   1.409       .  A
C363        O369   1.326       .  A
C364        C365   1.409       .  A
C364        H375   1.082       .  S
C365        C374   1.367       .  A
C365        C366   1.379   1_556  A
C366        C367   1.409       .  A
C366        O372   1.325       .  A
C367        C368   1.409       .  A
C367        H376   1.082       .  S
C368        C371   1.368       .  A
O369        C370   1.335   1_556  A
C370        C371   1.396       .  A
C371        H377   1.082       .  S
O372        C373   1.335       .  A
C373        C374   1.395   1_554  A
C374        H378   1.082       .  S
C379        C384   1.380   1_565  A
C379        C380   1.406       .  A
C379        O385   1.323       .  A
C380        C381   1.406       .  A
C380        H391   1.082       .  S
C381        C390   1.365       .  A
C381        C382   1.379   1_565  A
C382        C383   1.409       .  A
C382        O388   1.324       .  A
C383        C384   1.409       .  A
C383        H392   1.082       .  S
C384        C387   1.367       .  A
O385        C386   1.332       .  A
C386        C387   1.396   1_565  A
C387        H393   1.082       .  S
O388        C389   1.335       .  A
C389        C390   1.394   1_545  A
C390        H394   1.082       .  S
C395        C400   1.379   1_545  A
C395        C396   1.409       .  A
C395        O401   1.324       .  A
C396        C397   1.408       .  A
C396        H407   1.082       .  S
C397        C406   1.367       .  A
C397        C398   1.380   1_545  A
C398        C399   1.406       .  A
C398        O404   1.323       .  A
C399        C400   1.406       .  A
C399        H408   1.082       .  S
C400        C403   1.364       .  A
O401        C402   1.335   1_545  A
C402        C403   1.393       .  A
C403        H409   1.082       .  S
O404        C405   1.333       .  A
C405        C406   1.395   1_565  A
C406        H410   1.082       .  S
C411        C416   1.378   1_455  A
C411        C412   1.406       .  A
C411        O417   1.321       .  A
C412        C413   1.405       .  A
C412        H423   1.082       .  S
C413        C422   1.365       .  A
C413        C414   1.378   1_455  A
C414        C415   1.407       .  A
C414        O420   1.321       .  A
C415        C416   1.406       .  A
C415        H424   1.082       .  S
C416        C419   1.364       .  A
O417        C418   1.334   1_455  A
C418        C419   1.397       .  A
C419        H425   1.082       .  S
O420        C421   1.334   1_655  A
C421        C422   1.396       .  A
C422        H426   1.082       .  S
C427        C432   1.380   1_455  A
C427        C428   1.406       .  A
C427        O433   1.323       .  A
C428        C429   1.406       .  A
C428        H439   1.082       .  S
C429        C438   1.364       .  A
C429        C430   1.379   1_455  A
C430        C431   1.407       .  A
C430        O436   1.323       .  A
C431        C432   1.407       .  A
C431        H440   1.082       .  S
C432        C435   1.365       .  A
O433        C434   1.333   1_455  A
C434        C435   1.393       .  A
C435        H441   1.082       .  S
O436        C437   1.334       .  A
C437        C438   1.395   1_655  A
C438        H442   1.082       .  S
C443        C448   1.382   1_456  A
C443        C444   1.400       .  A
C443        O449   1.316       .  A
C444        C445   1.400       .  A
C444        H455   1.082       .  S
C445        C454   1.357       .  A
C445        C446   1.379   1_456  A
C446        C447   1.401       .  A
C446        O452   1.316       .  A
C447        C448   1.400       .  A
C447        H456   1.082       .  S
C448        C451   1.359       .  A
O449        C450   1.328   1_456  A
C450        C451   1.387       .  A
C451        H457   1.083       .  S
O452        C453   1.331   1_655  A
C453        C454   1.395   1_554  A
C454        H458   1.082       .  S
C459        C464   1.381   1_456  A
C459        C460   1.403       .  A
C459        O465   1.319       .  A
C460        C461   1.402       .  A
C460        H471   1.082       .  S
C461        C470   1.360       .  A
C461        C462   1.381   1_456  A
C462        C463   1.400       .  A
C462        O468   1.316       .  A
C463        C464   1.400       .  A
C463        H472   1.082       .  S
C464        C467   1.357       .  A
O465        C466   1.331       .  A
C466        C467   1.389   1_456  A
C467        H473   1.083       .  S
O468        C469   1.330   1_655  A
C469        C470   1.391   1_554  A
C470        H474   1.082       .  S
C475        C480   1.381   1_566  A
C475        C476   1.400       .  A
C475        O481   1.314       .  A
C476        C477   1.398       .  A
C476        H487   1.082       .  S
C477        C486   1.358       .  A
C477        C478   1.381   1_566  A
C478        C479   1.403       .  A
C478        O484   1.316       .  A
C479        C480   1.402       .  A
C479        H488   1.082       .  S
C480        C483   1.362       .  A
O481        C482   1.329   1_566  A
C482        C483   1.391       .  A
C483        H489   1.082       .  S
O484        C485   1.331   1_554  A
C485        C486   1.389   1_545  A
C486        H490   1.082       .  S
C491        C496   1.381   1_546  A
C491        C492   1.401       .  A
C491        O497   1.316       .  A
C492        C493   1.400       .  A
C492        H503   1.082       .  S
C493        C502   1.359       .  A
C493        C494   1.381   1_546  A
C494        C495   1.402       .  A
C494        O500   1.316       .  A
C495        C496   1.400       .  A
C495        H504   1.082       .  S
C496        C499   1.359       .  A
O497        C498   1.329       .  A
C498        C499   1.390   1_546  A
C499        H505   1.082       .  S
O500        C501   1.330   1_564  A
C501        C502   1.389       .  A
C502        H506   1.082       .  S
C507        C512   1.381   1_665  A
C507        C508   1.401       .  A
C507        O513   1.316       .  A
C508        C509   1.401       .  A
C508        H519   1.082       .  S
C509        C518   1.359       .  A
C509        C510   1.381   1_665  A
C510        C511   1.399       .  A
C510        O516   1.315       .  A
C511        C512   1.398       .  A
C511        H520   1.082       .  S
C512        C515   1.355       .  A
O513        C514   1.330       .  A
C514        C515   1.389   1_665  A
C515        H521   1.083       .  S
O516        C517   1.328   1_445  A
C517        C518   1.390       .  A
C518        H522   1.083       .  S
C523        C528   1.381   1_465  A
C523        C524   1.400       .  A
C523        O529   1.315       .  A
C524        C525   1.400       .  A
C524        H535   1.082       .  S
C525        C534   1.359       .  A
C525        C526   1.381   1_465  A
C526        C527   1.400       .  A
C526        O532   1.315       .  A
C527        C528   1.399       .  A
C527        H536   1.082       .  S
C528        C531   1.357       .  A
O529        C530   1.329   1_565  A
C530        C531   1.389   1_455  A
C531        H537   1.082       .  S
O532        C533   1.329   1_645  A
C533        C534   1.390       .  A
C534        H538   1.083       .  S
