geometry optimzed in LAMMPS
_audit_creation_date              2020-11-30 
_audit_creation_method            'lammps2cif' 
_symmetry_space_group_name_H-M    'P1' 
_symmetry_Int_Tables_number       1 
_symmetry_cell_setting            triclinic 
loop_ 
_symmetry_equiv_pos_as_xyz 
  x,y,z 
_cell_length_a                    52.57848871 
_cell_length_b                    50.828728043558456 
_cell_length_c                    40.212188863032374 
_cell_angle_alpha                 90.17117959351033 
_cell_angle_beta                  90.04745685139027 
_cell_angle_gamma                 89.9894384202805 
loop_ 
_atom_site_label 
_atom_site_type_symbol 
_atom_site_fract_x 
_atom_site_fract_y 
_atom_site_fract_z 
_atom_site_charge 
O1          O  0.26071122  0.20557603  0.40254009    -0.79400
O2          O  0.26245018  0.20623150  0.59527356    -0.81000
O3          O  0.30440873  0.17470601  0.49733977    -0.78000
O4          O  0.22128782  0.17512761  0.50258333    -0.76400
O5          O  0.19142949  0.20765052  0.49961721    -0.78200
O6          O  0.33463083  0.20676941  0.49993002    -0.79100
O7          O  0.26442334  0.17504530  0.55392116    -0.80400
O8          O  0.25987303  0.17511134  0.44438235    -0.80700
Eu9        Eu  0.26300683  0.19662222  0.49938787     2.39200
O10         O  0.23816975  0.22368300  0.53394537    -0.88200
O11         O  0.28869305  0.22285720  0.46510153    -0.91800
C12         C  0.25903171  0.18160151  0.41331166     1.02800
C13         C  0.26341680  0.18214554  0.58475072     1.02700
C14         C  0.32772376  0.18253829  0.49816607     1.02600
C15         C  0.19807388  0.18330144  0.50147837     1.00500
H16         H  0.29917773  0.21211664  0.54796692     0.30200
O17         O  0.28838265  0.22299357  0.53456633    -1.00600
H18         H  0.22666468  0.21255169  0.45139629     0.30300
O19         O  0.23788728  0.22323231  0.46464616    -1.03200
O20         O  0.26186735  0.29501495  0.59412841    -0.80400
O21         O  0.26449815  0.29418073  0.40352105    -0.79900
O22         O  0.33530889  0.25002892  0.55397946    -0.78400
O23         O  0.19140660  0.24923231  0.55234563    -0.81700
O24         O  0.19200587  0.25190466  0.44567690    -0.79600
O25         O  0.33504400  0.24813755  0.44713839    -0.78200
O26         O  0.30600235  0.32337996  0.49914824    -0.79700
O27         O  0.22225869  0.32471810  0.49800135    -0.81700
O28         O  0.33610714  0.29114351  0.49969829    -0.78400
O29         O  0.19199642  0.29261826  0.49962246    -0.81100
O30         O  0.30666181  0.25080994  0.59653997    -0.76800
O31         O  0.30662660  0.24828278  0.40420894    -0.76800
O32         O  0.22099234  0.25201092  0.40337196    -0.76500
O33         O  0.22000222  0.24953672  0.59512121    -0.80000
O34         O  0.26352736  0.32546616  0.55223462    -0.79400
O35         O  0.26572939  0.32532138  0.44480303    -0.77700
Eu36       Eu  0.26340180  0.25031899  0.56926216     2.39800
Eu37       Eu  0.26361754  0.24960632  0.42977724     2.39600
Eu38       Eu  0.31356995  0.24931636  0.50034516     2.38400
Eu39       Eu  0.21328681  0.25008437  0.49923515     2.39900
Eu40       Eu  0.26393381  0.30283394  0.49874636     2.39800
O41         O  0.23829100  0.27647726  0.46442950    -0.92100
O42         O  0.28894926  0.27674038  0.53436735    -0.91000
C43         C  0.26221316  0.31894637  0.58313582     1.03000
C44         C  0.26544266  0.31839042  0.41388426     1.01700
C45         C  0.32983927  0.25074803  0.58517676     1.01100
C46         C  0.19692860  0.24915596  0.58352811     1.03100
C47         C  0.19793726  0.25266944  0.41464396     1.02100
C48         C  0.32957983  0.24814352  0.41598603     1.00900
C49         C  0.32929686  0.31544994  0.49931984     1.01000
C50         C  0.19891292  0.31689110  0.49879657     1.03600
H51         H  0.30024084  0.28652979  0.45159596     0.31000
O52         O  0.28922914  0.27586408  0.46488396    -1.04300
H53         H  0.22745301  0.28780826  0.54681034     0.33000
O54         O  0.23837862  0.27675899  0.53364123    -1.06900
N55         N  0.05199814  0.49959230  0.50777204    -0.35900
N56         N  0.51336456  0.04100583  0.50072617    -0.56500
N57         N  0.47326993  0.50073889  0.50619553    -0.35900
N58         N  0.51193457  0.45995641  0.49989513    -0.56500
C59         C  0.06386524  0.02322012  0.49065862     0.27700
C60         C  0.06602028  0.47822099  0.49967659     0.27700
C61         C  0.46091971  0.02174355  0.49197116     0.27700
C62         C  0.45915545  0.48014313  0.49562104     0.27700
C63         C  0.03250660  0.05630147  0.50989122     0.36300
C64         C  0.49264551  0.05623716  0.50540574     0.36300
C65         C  0.03361804  0.44386072  0.50981676     0.36300
C66         C  0.49113552  0.44478183  0.50392231     0.36300
C67         C  0.08666942  0.01601797  0.47583686    -0.21200
C68         C  0.08918156  0.48605919  0.48663524    -0.21200
C69         C  0.43814131  0.01393896  0.47764479    -0.21200
C70         C  0.43577508  0.48902797  0.48426032    -0.21200
C71         C  0.02529292  0.08073304  0.52208389    -0.22200
C72         C  0.49984306  0.08148131  0.51451251    -0.22200
C73         C  0.02585108  0.41832257  0.51615592    -0.22200
C74         C  0.49819323  0.41930237  0.51206500    -0.22200
C75         C  0.05739809  0.04902688  0.50065655    -0.17600
C76         C  0.05901989  0.45186904  0.50550168    -0.17600
C77         C  0.46596499  0.45340202  0.49866732    -0.17600
C78         C  0.46749064  0.04801845  0.49919702    -0.17600
H79         H  0.10212065  0.02870635  0.46829704     0.15300
H80         H  0.10459789  0.47360205  0.47821119     0.15300
H81         H  0.42285272  0.02640051  0.46889596     0.15300
H82         H  0.42019260  0.47733012  0.47467278     0.15300
H83         H  0.03745747  0.09725798  0.52804847     0.13600
H84         H  0.48758270  0.09814024  0.51948658     0.13600
H85         H  0.03772367  0.40120918  0.52007619     0.13600
H86         H  0.48586623  0.40265783  0.51664948     0.13600
H87         H  0.03539140  0.49955742  0.52176862     0.26900
H88         H  0.49017366  0.49953877  0.51949910     0.26900
O89         O  0.48674863  0.45435385  0.90165563    -0.79400
O90         O  0.48407094  0.45157898  0.09296325    -0.81000
O91         O  0.02741121  0.42216412  0.99923183    -0.78000
O92         O  0.44315113  0.42210682  0.99723793    -0.76400
O93         O  0.41237908  0.45364010  0.99904720    -0.78200
O94         O  0.05706061  0.45487104  0.99925920    -0.79100
O95         O  0.48294969  0.42198883  0.05009954    -0.80400
O96         O  0.48563996  0.42313794  0.94269726    -0.80700
Eu97       Eu  0.48439882  0.44444821  0.99684776     2.39200
O98         O  0.45945030  0.47027395  0.03233901    -0.88200
O99         O  0.01010240  0.47064947  0.96361820    -0.91800
C100        C  0.48700167  0.43025265  0.91205615     1.02800
C101        C  0.48312465  0.42779231  0.08127622     1.02700
C102        C  0.05065160  0.43039467  0.99971182     1.02600
C103        C  0.41971011  0.42945897  0.99847339     1.00500
H104        H  0.02141886  0.45855763  0.04686249     0.30200
O105        O  0.01033002  0.46973956  0.03351425    -1.00600
H106        H  0.44758645  0.45969838  0.94923274     0.30300
O107        O  0.45834609  0.47074817  0.96293684    -1.03200
O108        O  0.48748738  0.04029830  0.09821793    -0.80400
O109        O  0.48426419  0.04303342  0.90743539    -0.79900
O110        O  0.05651501  0.49786776  0.05210974    -0.78400
O111        O  0.41363652  0.49440364  0.05401465    -0.81700
O112        O  0.41121449  0.49788179  0.94544885    -0.79600
O113        O  0.05594088  0.49802884  0.94589223    -0.78200
O114        O  0.02550016  0.07156984  0.00444850    -0.79700
O115        O  0.44129230  0.06929921  0.00135450    -0.81700
O116        O  0.05596566  0.03960412  0.00247169    -0.78400
O117        O  0.41143152  0.03681541  0.00057622    -0.81100
O118        O  0.02813177  0.49560019  0.09505944    -0.76800
O119        O  0.02736334  0.00078370  0.90390139    -0.76800
O120        O  0.44213528  0.99752445  0.90468455    -0.76500
O121        O  0.44299396  0.49489081  0.09594418    -0.80000
O122        O  0.48513662  0.07102541  0.05690024    -0.79400
O123        O  0.48377253  0.07234207  0.95064440    -0.77700
Eu124      Eu  0.48483521  0.49630094  0.06806212     2.39800
Eu125      Eu  0.48348739  0.49823617  0.92864146     2.39600
Eu126      Eu  0.03458839  0.49706177  0.99913848     2.38400
Eu127      Eu  0.43337839  0.49641950  0.99898531     2.39900
Eu128      Eu  0.48386760  0.04907250  0.00323168     2.39800
O129        O  0.45917379  0.02288277  0.96773652    -0.92100
O130        O  0.00972256  0.02300089  0.03508196    -0.91000
C131        C  0.48711332  0.06445849  0.08768341     1.03000
C132        C  0.48391697  0.06679471  0.91939169     1.01700
C133        C  0.05100951  0.49710662  0.08323253     1.01100
C134        C  0.41984981  0.49402333  0.08506974     1.03100
C135        C  0.41896487  0.99739943  0.91587597     1.02100
C136        C  0.05050299  0.00096823  0.91521970     1.00900
C137        C  0.04885671  0.06378413  0.00418151     1.01000
C138        C  0.41803293  0.06116506  0.00030533     1.03600
H139        H  0.02008151  0.03644128  0.95347359     0.31000
O140        O  0.00930767  0.02476870  0.96636059    -1.04300
H141        H  0.44765504  0.03297392  0.05097978     0.33000
O142        O  0.45864694  0.02213828  0.03726756    -1.06900
N143        N  0.27379178  0.24424625  0.00748524    -0.35900
N144        N  0.23358830  0.20505703  0.00911689    -0.56500
N145        N  0.19604702  0.24667610  0.01079664    -0.35900
N146        N  0.23621713  0.28583035  0.00489938    -0.56500
C147        C  0.28692443  0.22239122  0.99899368     0.27700
C148        C  0.28862330  0.26511108  0.00000399     0.27700
C149        C  0.18077441  0.22551978  0.00663492     0.27700
C150        C  0.18214183  0.26822188  0.00321035     0.27700
C151        C  0.25383687  0.18895887  0.01198115     0.36300
C152        C  0.21292246  0.19030631  0.01580873     0.36300
C153        C  0.25718669  0.30051259  0.01061341     0.36300
C154        C  0.21612984  0.30194093  0.00977071     0.36300
C155        C  0.31043946  0.22946383  0.98617720    -0.21200
C156        C  0.31154482  0.25647290  0.98693443    -0.21200
C157        C  0.15672633  0.23375735  0.99701958    -0.21200
C158        C  0.15762047  0.26069994  0.99473190    -0.21200
C159        C  0.24604805  0.16379434  0.02044326    -0.22200
C160        C  0.22004287  0.16464304  0.02284486    -0.22200
C161        C  0.25039807  0.32606549  0.01882568    -0.22200
C162        C  0.22435240  0.32700813  0.01808176    -0.22200
C163        C  0.27902554  0.19623695  0.00459076    -0.17600
C164        C  0.28236933  0.29167619  0.00604353    -0.17600
C165        C  0.19044877  0.29458804  0.00583371    -0.17600
C166        C  0.18765759  0.19904255  0.01229159    -0.17600
H167        H  0.32537083  0.21649285  0.97749454     0.15300
H168        H  0.32741167  0.26839048  0.97880755     0.15300
H169        H  0.14019701  0.22164180  0.99219185     0.15300
H170        H  0.14190663  0.27333453  0.98788077     0.15300
H171        H  0.25781084  0.14653001  0.02385595     0.13600
H172        H  0.20775467  0.14813626  0.02834355     0.13600
H173        H  0.26289975  0.34238788  0.02450366     0.13600
H174        H  0.21278567  0.34414383  0.02329330     0.13600
H175        H  0.25707378  0.24488158  0.02120724     0.26900
H176        H  0.21397886  0.24662098  0.02157628     0.26900
C177        C  0.03813453  0.25208354  0.27331595     0.87200
C178        C  0.03553573  0.22609175  0.25409109    -0.53100
C179        C  0.51112018  0.22387481  0.23525224     0.10100
C180        C  0.49320314  0.24772352  0.23952264     0.21100
C181        C  0.03441070  0.27371617  0.24697700    -0.53800
C182        C  0.50964974  0.27183892  0.23068454     0.10200
C183        C  0.51137626  0.25220806  0.29504146    -0.53300
C184        C  0.48911541  0.25024584  0.27732439     0.10800
H185        H  0.05004869  0.21087530  0.25437664     0.15300
H186        H  0.47533176  0.24638506  0.22486974     0.01000
H187        H  0.04664063  0.29065159  0.24382422     0.15600
H188        H  0.51173446  0.25448430  0.32189721     0.15400
C189        C  0.21344934  0.49894845  0.22049309     0.87200
C190        C  0.21621539  0.47556510  0.24413003    -0.53100
C191        C  0.23722280  0.47612730  0.26425084     0.10100
C192        C  0.25417506  0.50065515  0.25804881     0.21100
C193        C  0.21535970  0.02284829  0.23967895    -0.53800
C194        C  0.23614387  0.02399040  0.25998071     0.10200
C195        C  0.23866026  0.49940651  0.20092029    -0.53300
C196        C  0.25988455  0.50023376  0.22046178     0.10800
H197        H  0.20291740  0.45926447  0.24349435     0.15300
H198        H  0.27157654  0.50162355  0.27362075     0.01000
H199        H  0.20114476  0.03832207  0.23873416     0.15600
H200        H  0.24026621  0.49964645  0.17410910     0.15400
C201        C  0.03632057  0.24533361  0.72648466     0.87200
C202        C  0.03343297  0.27074356  0.74679266    -0.53100
C203        C  0.51351595  0.27125994  0.76630518     0.10100
C204        C  0.49616036  0.24703315  0.76169623     0.21100
C205        C  0.03237081  0.22312554  0.75209428    -0.53800
C206        C  0.51313800  0.22330247  0.77039068     0.10200
C207        C  0.51441601  0.24355906  0.70622797    -0.53300
C208        C  0.49202625  0.24491445  0.72370226     0.10800
H209        H  0.04774397  0.28616009  0.74739958     0.15300
H210        H  0.47833940  0.24781869  0.77644753     0.01000
H211        H  0.04525961  0.20687920  0.75616208     0.15600
H212        H  0.51498790  0.24217253  0.67929187     0.15400
C213        C  0.20887966  0.50016989  0.77123168     0.87200
C214        C  0.21555418  0.02693024  0.75213984    -0.53100
C215        C  0.23841717  0.02704545  0.73609203     0.10100
C216        C  0.25168689  0.49997723  0.73785561     0.21100
C217        C  0.21238068  0.47615585  0.74838898    -0.53800
C218        C  0.23449417  0.47599756  0.73076000     0.10200
C219        C  0.23279838  0.49973509  0.79320189    -0.53300
C220        C  0.25535101  0.49939206  0.77610654     0.10800
H221        H  0.20227474  0.04327190  0.75075829     0.15300
H222        H  0.26965420  0.49970993  0.72341472     0.01000
H223        H  0.19954625  0.45954469  0.74726707     0.15600
H224        H  0.23180661  0.49970077  0.82014543     0.15400
C225        C  0.11531560  0.01499585  0.11698195    -0.27500
C226        C  0.11770826  0.49597394  0.14544174     0.06100
C227        C  0.09528356  0.48311736  0.15584265     0.25700
C228        C  0.07309176  0.48441264  0.13640581    -0.12000
C229        C  0.07308018  0.49807676  0.10610109    -0.25900
C230        C  0.09311021  0.01512920  0.09817610     0.36500
C231        C  0.14189975  0.49465979  0.16472098     0.06100
F232        F  0.09506744  0.46841117  0.18394608    -0.19700
H233        H  0.05628171  0.47384306  0.14433921     0.15900
F234        F  0.09182059  0.03117644  0.07127513    -0.23400
H235        H  0.13072729  0.02796651  0.10993185     0.17700
C236        C  0.16563630  0.99562972  0.14527343     0.25700
C237        C  0.18869362  0.99580800  0.16261609    -0.12000
C238        C  0.18861682  0.49732043  0.20041431    -0.26000
C239        C  0.16498647  0.49959543  0.21694886     0.36600
C240        C  0.14204219  0.49858698  0.19926058    -0.27600
F241        F  0.16611714  0.99344309  0.11160908    -0.19700
H242        H  0.20588065  0.99442324  0.14816220     0.15900
F243        F  0.16404781  0.50315037  0.25038769    -0.23500
H244        H  0.12438281  0.50157254  0.21257471     0.17800
C245        C  0.31824360  0.01925944  0.17360313    -0.27500
C246        C  0.33284698  0.49910263  0.17267491     0.06100
C247        C  0.32727671  0.48106858  0.19800488     0.25700
C248        C  0.30386294  0.48222470  0.21449620    -0.12000
C249        C  0.28576004  0.50132594  0.20597900    -0.25900
C250        C  0.29468061  0.02007559  0.18937497     0.36500
C251        C  0.35561149  0.49581209  0.15153143     0.06100
F252        F  0.34373882  0.46133040  0.20522589    -0.19700
H253        H  0.29935689  0.46728210  0.23256865     0.15900
F254        F  0.27985343  0.04178998  0.18614168    -0.23400
H255        H  0.32426648  0.03600763  0.15898136     0.17700
C256        C  0.35248550  0.49099908  0.11746389     0.25700
C257        C  0.37354284  0.48946857  0.09665873    -0.12000
C258        C  0.39836434  0.49295443  0.10912187    -0.26000
C259        C  0.40160657  0.49642897  0.14373389     0.36600
C260        C  0.38028634  0.49782591  0.16472084    -0.27600
F261        F  0.32942861  0.00394346  0.10579577    -0.19700
H262        H  0.37045981  0.00218222  0.07177181     0.15900
F263        F  0.42512714  0.49915649  0.15724147    -0.23500
H264        H  0.38297567  0.50119393  0.19110075     0.17800
C265        C  0.01379649  0.32136096  0.15980031    -0.27500
C266        C  0.49234683  0.33821224  0.16895828     0.06100
C267        C  0.47658339  0.33199258  0.19604349     0.25700
C268        C  0.48142113  0.30945659  0.21512492    -0.12000
C269        C  0.50218365  0.29311852  0.20761820    -0.25900
C270        C  0.01998136  0.29952600  0.17921907     0.36500
C271        C  0.48742716  0.36149322  0.14785341     0.06100
F272        F  0.45648077  0.34758488  0.20380940    -0.17100
H273        H  0.46949512  0.30520603  0.23639852     0.15900
F274        F  0.04130897  0.28554246  0.17209280    -0.23400
H275        H  0.02603188  0.32670886  0.13923221     0.17700
C276        C  0.99037257  0.38567211  0.16025366     0.25700
C277        C  0.98809573  0.40766413  0.13949400    -0.12000
C278        C  0.48287706  0.40515208  0.10472502    -0.26000
C279        C  0.47954210  0.37915429  0.09276947     0.36600
C280        C  0.48207858  0.35773780  0.11410164    -0.27600
F281        F  0.99723282  0.38911593  0.19251130    -0.19700
H282        H  0.99206047  0.42700021  0.14961441     0.15900
F283        F  0.47423284  0.37412484  0.06031053    -0.23500
H284        H  0.48016339  0.33800730  0.10412791     0.17800
C285        C  0.51673942  0.17518966  0.16425523    -0.27500
C286        C  0.50009107  0.15513303  0.17439714     0.06100
C287        C  0.00648093  0.15268422  0.20889945     0.25700
C288        C  0.01033811  0.17508575  0.22865024    -0.12000
C289        C  0.50622245  0.20095266  0.21342644    -0.25900
C290        C  0.52005488  0.19777789  0.18382438     0.36500
C291        C  0.49627367  0.13158043  0.15311173     0.06100
F292        F  0.00752645  0.12868553  0.22352376    -0.19700
H293        H  0.01470617  0.17268282  0.25480060     0.15900
F294        F  0.53714462  0.21629960  0.17429158    -0.23400
H295        H  0.52741044  0.17314134  0.14136110     0.17700
C296        C  0.48553195  0.13429920  0.12142745     0.25700
C297        C  0.48201309  0.11227715  0.10110293    -0.12000
C298        C  0.48936561  0.08690415  0.11160270    -0.26000
C299        C  0.00990919  0.08710505  0.13520938     0.36600
C300        C  0.01334268  0.10931661  0.15566376    -0.27600
F301        F  0.47818536  0.15831279  0.11023895    -0.19700
H302        H  0.47359802  0.11523711  0.07680663     0.15900
F303        F  0.02651830  0.06675225  0.13756777    -0.23500
H304        H  0.02911359  0.10949418  0.17298951     0.17800
C305        C  0.14928461  0.35169365  0.97810585    -0.27500
C306        C  0.13303966  0.35468307  0.00561413     0.06100
C307        C  0.13621734  0.33816600  0.03332271     0.25700
C308        C  0.15505213  0.31881556  0.03322649    -0.12000
C309        C  0.17094440  0.31561181  0.00557806    -0.25900
C310        C  0.16807459  0.33221095  0.97798090     0.36500
C311        C  0.11213041  0.37419916  0.00466222     0.06100
F312        F  0.12125297  0.34089870  0.06059346    -0.19700
H313        H  0.15723651  0.30618980  0.05469940     0.15900
F314        F  0.18303023  0.32912345  0.95073892    -0.23400
H315        H  0.14696000  0.36401739  0.95638522     0.17700
C316        C  0.11691273  0.40069630  0.99713574     0.25700
C317        C  0.09685813  0.41870965  0.99556885    -0.12000
C318        C  0.07156844  0.41070233  0.00122641    -0.26000
C319        C  0.06689638  0.38407813  0.00891721     0.36600
C320        C  0.08702083  0.36613317  0.01063408    -0.27600
F321        F  0.14102330  0.40926965  0.99184186    -0.19700
H322        H  0.10121464  0.43900512  0.98975585     0.15900
F323        F  0.04300145  0.37528967  0.01513758    -0.23500
H324        H  0.08294001  0.34573334  0.01624415     0.17800
C325        C  0.34026054  0.33196343  0.02974386    -0.27500
C326        C  0.34091916  0.35038408  0.00378322     0.06100
C327        C  0.32258451  0.34904769  0.97838674     0.25700
C328        C  0.30381815  0.32969584  0.97912512    -0.12000
C329        C  0.30296121  0.31152766  0.00523258    -0.25900
C330        C  0.32131232  0.31268795  0.03059935     0.36500
C331        C  0.36100119  0.37064404  0.00291241     0.06100
F332        F  0.32314423  0.36612290  0.95251532    -0.19700
H333        H  0.28982528  0.32886763  0.95936070     0.15900
F334        F  0.32058602  0.29550172  0.05636133    -0.23400
H335        H  0.35423490  0.33276781  0.04953496     0.17700
C336        C  0.35476304  0.39741417  0.00026243     0.25700
C337        C  0.37393944  0.41630621  0.99872593    -0.12000
C338        C  0.39973546  0.40891805  0.99959774    -0.26000
C339        C  0.40589853  0.38197940  0.00217818     0.36600
C340        C  0.38663620  0.36313404  0.00408069    -0.27600
F341        F  0.33011020  0.40535098  0.99964750    -0.19700
H342        H  0.36846876  0.43679143  0.99684472     0.15900
F343        F  0.43043506  0.37368816  0.00288150    -0.23500
H344        H  0.39173473  0.34253627  0.00591475     0.17800
C345        C  0.31911144  0.13950185  0.97377918    -0.27500
C346        C  0.33659500  0.13704875  0.99998523     0.06100
C347        C  0.33468794  0.15370282  0.02781491     0.25700
C348        C  0.31567630  0.17272054  0.02923058    -0.12000
C349        C  0.29845953  0.17539258  0.00291850    -0.25900
C350        C  0.30015060  0.15871749  0.97512677     0.36500
C351        C  0.35729230  0.11765864  0.99805919     0.06100
F352        F  0.35112568  0.15140659  0.05369400    -0.19700
H353        H  0.31441010  0.18552270  0.05075652     0.15900
F354        F  0.28382991  0.16145786  0.94919019    -0.23400
H355        H  0.32052860  0.12692423  0.95206380     0.17700
C356        C  0.35204500  0.09076541  0.99448676     0.25700
C357        C  0.37191439  0.07256362  0.99478502    -0.12000
C358        C  0.39733462  0.08089472  0.99872163    -0.26000
C359        C  0.40243463  0.10802349  0.00147904     0.36600
C360        C  0.38253895  0.12613062  0.00112207    -0.27600
F361        F  0.32769294  0.08206371  0.99201460    -0.19700
H362        H  0.36727807  0.05188420  0.99237622     0.15900
F363        F  0.42651209  0.11718709  0.00518000    -0.23500
H364        H  0.38681174  0.14689654  0.00361116     0.17800
C365        C  0.08449733  0.12725647  0.02026532    -0.27500
C366        C  0.10843926  0.12123661  0.00686871     0.06100
C367        C  0.11273509  0.09625620  0.99298644     0.25700
C368        C  0.09324763  0.07770124  0.99238786    -0.12000
C369        C  0.06912607  0.08376661  0.00539994    -0.25900
C370        C  0.06491189  0.10874786  0.01950581     0.36500
C371        C  0.12891840  0.14097875  0.00812644     0.06100
F372        F  0.13589808  0.08959230  0.98065562    -0.19700
H373        H  0.09702181  0.05858748  0.98145713     0.15900
F374        F  0.04213322  0.11512349  0.03320808    -0.23400
H375        H  0.08095572  0.14641490  0.03119731     0.17700
C376        C  0.14197947  0.14833168  0.97910440     0.25700
C377        C  0.16123556  0.16713557  0.98076337    -0.12000
C378        C  0.16744221  0.17896961  0.01119843    -0.26000
C379        C  0.15436052  0.17185830  0.04015128     0.36600
C380        C  0.13521007  0.15290808  0.03858416    -0.27600
F381        F  0.13563766  0.13791101  0.94909951    -0.19700
H382        H  0.17116449  0.17275250  0.95828046     0.15900
F383        F  0.16014966  0.18323718  0.06977664    -0.23500
H384        H  0.12533027  0.14742470  0.06115508     0.17800
C385        C  0.30619821  0.48266147  0.84040876    -0.27500
C386        C  0.32887670  0.99433183  0.83122870     0.06100
C387        C  0.32664591  0.00805942  0.80108477     0.25700
C388        C  0.30321081  0.00922200  0.78435916    -0.12000
C389        C  0.28053839  0.49730185  0.79331679    -0.25900
C390        C  0.28323905  0.48252158  0.82278991     0.36500
C391        C  0.35257063  0.99581871  0.85166921     0.06100
F392        F  0.34682538  0.02138777  0.78858038    -0.19700
H393        H  0.30193837  0.02097593  0.76203147     0.15900
F394        F  0.26387747  0.46748694  0.83443443    -0.23400
H395        H  0.30756165  0.47159435  0.86332579     0.17700
C396        C  0.34926069  0.50753362  0.88255705     0.25700
C397        C  0.37093775  0.50802973  0.90272511    -0.12000
C398        C  0.39690586  0.99794678  0.89230475    -0.26000
C399        C  0.39840753  0.98894942  0.85912151     0.36600
C400        C  0.37639370  0.98793943  0.83904633    -0.27600
F401        F  0.32678911  0.51603183  0.89530806    -0.19700
H402        H  0.36895807  0.51510185  0.92803069     0.15900
F403        F  0.42082323  0.98032118  0.84642399    -0.23500
H404        H  0.37783741  0.98050001  0.81385310     0.17800
C405        C  0.09141525  0.00298005  0.83643518    -0.27500
C406        C  0.11542324  0.50282962  0.84989667     0.06100
C407        C  0.11823788  0.49877557  0.88414392     0.25700
C408        C  0.09691117  0.49735581  0.90457714    -0.12000
C409        C  0.07258784  0.00247712  0.89191642    -0.25900
C410        C  0.06984893  0.00206542  0.85704365     0.36500
C411        C  0.13820491  0.50349239  0.82823661     0.06100
F412        F  0.14165076  0.49542043  0.89779382    -0.19700
H413        H  0.10004382  0.49403817  0.93085251     0.15900
F414        F  0.04650732  0.00049791  0.84277246    -0.23400
H415        H  0.08887731  0.00271852  0.80970710     0.17700
C416        C  0.14248152  0.98518842  0.80394730     0.25700
C417        C  0.16487764  0.98441448  0.78524638    -0.12000
C418        C  0.18381435  0.50147886  0.79065092    -0.26000
C419        C  0.18070621  0.52012911  0.81643555     0.36600
C420        C  0.15833432  0.52078120  0.83526590    -0.27600
F421        F  0.12467820  0.96622976  0.79898810    -0.19700
H422        H  0.16618799  0.96890576  0.76711694     0.15900
F423        F  0.19939762  0.53766804  0.82365192    -0.23500
H424        H  0.15671826  0.53480113  0.85549712     0.17800
C425        C  0.98556257  0.11194105  0.84091405    -0.27500
C426        C  0.48952932  0.13503949  0.85575911     0.06100
C427        C  0.48667149  0.13772089  0.89027748     0.25700
C428        C  0.48407572  0.11550983  0.91028404    -0.12000
C429        C  0.48430460  0.08990727  0.89654440    -0.25900
C430        C  0.98386467  0.08921124  0.86068008     0.36500
C431        C  0.49478979  0.15845379  0.83477412     0.06100
F432        F  0.48650491  0.16188802  0.90476352    -0.19700
H433        H  0.48237439  0.11854584  0.93685605     0.15900
F434        F  0.98329213  0.06533301  0.84552347    -0.23400
H435        H  0.98661148  0.10991599  0.81412895     0.17700
C436        C  0.01475552  0.17464523  0.83863237     0.25700
C437        C  0.02016917  0.19597169  0.81792619    -0.12000
C438        C  0.50578645  0.20201314  0.79363598    -0.26000
C439        C  0.48480922  0.18575927  0.78672516     0.36600
C440        C  0.47951220  0.16402816  0.80699252    -0.27600
F441        F  0.03233727  0.16698123  0.86137651    -0.19700
H442        H  0.03835514  0.20581531  0.82032248     0.15900
F443        F  0.47013939  0.19021697  0.75954286    -0.23500
H444        H  0.46350682  0.15147216  0.80096466     0.17800
C445        C  0.00550550  0.31819930  0.83769590    -0.27500
C446        C  0.50155757  0.34009614  0.82647060     0.06100
C447        C  0.50310821  0.34198840  0.79163504     0.25700
C448        C  0.50615503  0.31933687  0.77225157    -0.12000
C449        C  0.50760352  0.29444393  0.78712595    -0.25900
C450        C  0.00963899  0.29553404  0.81869586     0.36500
C451        C  0.49729053  0.36387574  0.84735114     0.06100
F452        F  0.50125567  0.36564655  0.77625616    -0.19700
H453        H  0.50754142  0.32119085  0.74547884     0.15900
F454        F  0.01857294  0.27347225  0.83363833    -0.23400
H455        H  0.00927109  0.31762451  0.86417214     0.17700
C456        C  0.97661737  0.36299895  0.87216265     0.25700
C457        C  0.97397136  0.38433009  0.89385656    -0.12000
C458        C  0.48935809  0.40864653  0.88776949    -0.26000
C459        C  0.50806900  0.40901877  0.86287384     0.36600
C460        C  0.51199109  0.38675944  0.84283762    -0.27600
F461        F  0.96424871  0.34020806  0.87903214    -0.19700
H462        H  0.96246131  0.38198659  0.91598968     0.15900
F463        F  0.52352068  0.43022522  0.85932404    -0.23500
H464        H  0.52698180  0.38714292  0.82439460     0.17800
C465        C  0.39846100  0.25491829  0.61656081    -0.27500
C466        C  0.39617050  0.24917393  0.65047654     0.06100
C467        C  0.37159415  0.24544911  0.66365827     0.25700
C468        C  0.34992854  0.24639757  0.64284196    -0.12000
C469        C  0.35231058  0.25139323  0.60849504    -0.25900
C470        C  0.37706774  0.25623743  0.59592226     0.36500
C471        C  0.41972631  0.24662451  0.67121750     0.06100
F472        F  0.36863738  0.23993518  0.69641714    -0.19700
H473        H  0.33137338  0.24269195  0.65349565     0.15900
F474        F  0.38090932  0.26234550  0.56345887    -0.23400
H475        H  0.41706900  0.25842488  0.60589211     0.17700
C476        C  0.43930685  0.22931795  0.66153092     0.25700
C477        C  0.46233500  0.22848117  0.67910769    -0.12000
C478        C  0.46650902  0.24473322  0.70695745    -0.26000
C479        C  0.44658034  0.26139874  0.71743956     0.36600
C480        C  0.42350833  0.26234932  0.69964478    -0.27600
F481        F  0.43610030  0.21304049  0.63503621    -0.19700
H482        H  0.47701842  0.21503837  0.67082103     0.15900
F483        F  0.44976091  0.27775500  0.74384326    -0.23500
H484        H  0.40885073  0.27598670  0.70748830     0.17800
C485        C  0.15496371  0.24477796  0.66139055    -0.27500
C486        C  0.13049013  0.24801305  0.64760878     0.06100
C487        C  0.12832941  0.25139646  0.61307755     0.25700
C488        C  0.14996840  0.25199356  0.59306698    -0.12000
C489        C  0.17457303  0.24881901  0.60655454    -0.25900
C490        C  0.17679561  0.24495503  0.64112891     0.36500
C491        C  0.10715613  0.24747871  0.66878578     0.06100
F492        F  0.10515941  0.25330924  0.59833239    -0.19700
H493        H  0.14721849  0.25477160  0.56661850     0.15900
F494        F  0.19986969  0.24088906  0.65534019    -0.23400
H495        H  0.15720867  0.24215944  0.68794234     0.17700
C496        C  0.10328017  0.22756119  0.69240081     0.25700
C497        C  0.08073808  0.22658651  0.71096319    -0.12000
C498        C  0.06115736  0.24528522  0.70625196    -0.26000
C499        C  0.06526893  0.26524186  0.68248241     0.36600
C500        C  0.08795390  0.26639116  0.66435087    -0.27600
F501        F  0.12092958  0.20839326  0.69681372    -0.19700
H502        H  0.07913094  0.21091113  0.72875552     0.15900
F503        F  0.04724724  0.28383234  0.67677210    -0.23500
H504        H  0.09048490  0.28218906  0.64664761     0.17800
C505        C  0.24277202  0.13904728  0.65639191    -0.27500
C506        C  0.25908339  0.11724076  0.65290213     0.06100
C507        C  0.27764841  0.11767748  0.62767784     0.25700
C508        C  0.27938417  0.13918247  0.60612529    -0.12000
C509        C  0.26292442  0.16078662  0.60954162    -0.25900
C510        C  0.24474214  0.16068975  0.63508628     0.36500
C511        C  0.25592163  0.09383951  0.67477228     0.06100
F512        F  0.29417821  0.09737215  0.62391070    -0.19700
H513        H  0.29354698  0.13892607  0.58656482     0.15900
F514        F  0.22791345  0.18080943  0.63818551    -0.23400
H515        H  0.22792488  0.13899534  0.67503833     0.17700
C516        C  0.25280953  0.09676465  0.70937706     0.25700
C517        C  0.24795383  0.07481989  0.72933146    -0.12000
C518        C  0.24645403  0.04955330  0.71531823    -0.26000
C519        C  0.25032376  0.04639431  0.68102370     0.36600
C520        C  0.25486182  0.06837638  0.66093141    -0.27600
F521        F  0.25440890  0.12084439  0.72391812    -0.19700
H522        H  0.24503344  0.07755420  0.75578453     0.15900
F523        F  0.24822565  0.02227471  0.66670536    -0.23500
H524        H  0.25668479  0.06557408  0.63433455     0.17800
C525        C  0.26870458  0.41873171  0.68947627    -0.27500
C526        C  0.24905199  0.40809038  0.67000672     0.06100
C527        C  0.22531943  0.42057833  0.66918244     0.25700
C528        C  0.22121386  0.44324945  0.68799921    -0.12000
C529        C  0.24060496  0.45374690  0.70819582    -0.25900
C530        C  0.26453648  0.44138184  0.70864893     0.36500
C531        C  0.25365940  0.38471584  0.64921762     0.06100
F532        F  0.20624264  0.41101596  0.64984192    -0.19700
H533        H  0.20269114  0.45255611  0.68702383     0.15900
F534        F  0.28345801  0.45038883  0.72862022    -0.23400
H535        H  0.28715383  0.40925352  0.69010761     0.17700
C536        C  0.26816957  0.38700418  0.62020455     0.25700
C537        C  0.27142192  0.36530107  0.59933446    -0.12000
C538        C  0.26037900  0.34088526  0.60719906    -0.26000
C539        C  0.24603623  0.33856134  0.63659213     0.36600
C540        C  0.24259945  0.36044968  0.65733341    -0.27600
F541        F  0.27841483  0.41051856  0.61153990    -0.19700
H542        H  0.28236984  0.36767687  0.57672856     0.15900
F543        F  0.23434825  0.31558588  0.64441402    -0.23500
H544        H  0.23105853  0.35860449  0.67950898     0.17800
C545        C  0.39270410  0.15058032  0.49357202    -0.27500
C546        C  0.38640689  0.12390059  0.49605934     0.06100
C547        C  0.36077863  0.11644004  0.49846533     0.25700
C548        C  0.34176880  0.13558414  0.49918383    -0.12000
C549        C  0.34800756  0.16243771  0.49706717    -0.25900
C550        C  0.37378418  0.16972937  0.49377010     0.36500
C551        C  0.40682937  0.10410988  0.49643421     0.06100
F552        F  0.35412415  0.09065025  0.49932190    -0.19700
H553        H  0.32215634  0.12931139  0.50133471     0.15900
F554        F  0.38088509  0.19526951  0.49040866    -0.23400
H555        H  0.41241194  0.15660996  0.49164736     0.17700
C556        C  0.42513364  0.10353480  0.47099914     0.25700
C557        C  0.44512014  0.08552994  0.47230269    -0.12000
C558        C  0.44696790  0.06786261  0.49885423    -0.26000
C559        C  0.42854987  0.06819556  0.52411911     0.36600
C560        C  0.40863199  0.08630809  0.52292906    -0.27600
F561        F  0.42332769  0.12002341  0.44460795    -0.19700
H562        H  0.45900529  0.08507819  0.45242439     0.15900
F563        F  0.42993982  0.05104538  0.54987270    -0.23500
H564        H  0.39477455  0.08667785  0.54285063     0.17800
C565        C  0.13490423  0.14951782  0.48683497    -0.27500
C566        C  0.13848690  0.12547973  0.50321100     0.06100
C567        C  0.16181678  0.12052428  0.51918619     0.25700
C568        C  0.18122084  0.13933729  0.51842951    -0.12000
C569        C  0.17755498  0.16346965  0.50214604    -0.25900
C570        C  0.15409964  0.16843878  0.48645626     0.36500
C571        C  0.11783207  0.10571906  0.50282644     0.06100
F572        F  0.16607915  0.09730291  0.53482034    -0.19700
H573        H  0.19906293  0.13511412  0.53080723     0.15900
F574        F  0.14985486  0.19133524  0.47005462    -0.23400
H575        H  0.11706156  0.15371465  0.47444030     0.17700
C576        C  0.10877435  0.09452177  0.53249622     0.25700
C577        C  0.08883164  0.07637770  0.53161775    -0.12000
C578        C  0.07768278  0.06919415  0.50125818    -0.26000
C579        C  0.08655837  0.08042731  0.47162108     0.36600
C580        C  0.10647977  0.09857169  0.47245903    -0.27600
F581        F  0.11881398  0.10151959  0.56233805    -0.19700
H582        H  0.08208374  0.06780938  0.55461242     0.15900
F583        F  0.07628552  0.07338843  0.44191388    -0.23500
H584        H  0.11325330  0.10689317  0.44933106     0.17800
C585        C  0.11551365  0.41057908  0.53118361    -0.27500
C586        C  0.11924445  0.39507124  0.50265247     0.06100
C587        C  0.10267303  0.39789840  0.47540352     0.25700
C588        C  0.08285289  0.41613325  0.47666222    -0.12000
C589        C  0.07926651  0.43167409  0.50508143    -0.25900
C590        C  0.09558016  0.42873304  0.53247136     0.36500
C591        C  0.13983935  0.37533622  0.50174290     0.06100
F592        F  0.10599413  0.38339033  0.44734271    -0.19700
H593        H  0.07043498  0.41839843  0.45535348     0.15900
F594        F  0.09205020  0.44328961  0.56044369    -0.23400
H595        H  0.12782895  0.40833894  0.55259956     0.17700
C596        C  0.16519258  0.38235070  0.50842491     0.25700
C597        C  0.18437332  0.36333507  0.50709055    -0.12000
C598        C  0.17857569  0.33702067  0.49925194    -0.26000
C599        C  0.15308132  0.33014692  0.49253965     0.36600
C600        C  0.13401755  0.34915137  0.49390728    -0.27600
F601        F  0.17147662  0.40764375  0.51558509    -0.19700
H602        H  0.20374993  0.36921542  0.51245394     0.15900
F603        F  0.14643891  0.30516413  0.48424127    -0.23500
H604        H  0.11454478  0.34336848  0.48894716     0.17800
C605        C  0.39396318  0.34861142  0.49796558    -0.27500
C606        C  0.38694872  0.37521065  0.49865500     0.06100
C607        C  0.36111084  0.38204444  0.49942821     0.25700
C608        C  0.34258956  0.36248932  0.49944791    -0.12000
C609        C  0.34943855  0.33573820  0.49900044    -0.25900
C610        C  0.37547119  0.32895413  0.49829697     0.36500
C611        C  0.40674017  0.39565857  0.49820504     0.06100
F612        F  0.35373326  0.40763742  0.49951298    -0.19700
H613        H  0.32281144  0.36842985  0.49985468     0.15900
F614        F  0.38322503  0.30347077  0.49802339    -0.23400
H615        H  0.41386265  0.34307165  0.49752806     0.17700
C616        C  0.40727057  0.41548439  0.52262323     0.25700
C617        C  0.42655088  0.43424490  0.52239252    -0.12000
C618        C  0.44538006  0.43362285  0.49775194    -0.26000
C619        C  0.44458987  0.41417674  0.47290146     0.36600
C620        C  0.42548468  0.39515945  0.47337422    -0.27600
F621        F  0.38961358  0.41627311  0.54721619    -0.19700
H622        H  0.42699751  0.44918904  0.54165534     0.15900
F623        F  0.46223457  0.41365821  0.44828376    -0.23500
H624        H  0.42515770  0.38013669  0.45420841     0.17800
C625        C  0.15631451  0.24685073  0.33721732    -0.27500
C626        C  0.13249411  0.25401780  0.35029795     0.06100
C627        C  0.13079727  0.26217808  0.38349719     0.25700
C628        C  0.15235963  0.26246263  0.40357626    -0.12000
C629        C  0.17618057  0.25437512  0.39119540    -0.25900
C630        C  0.17807450  0.24693545  0.35750247     0.36500
C631        C  0.10920473  0.25288544  0.32973799     0.06100
F632        F  0.10819302  0.26998929  0.39650537    -0.19700
H633        H  0.15023614  0.26879161  0.42916541     0.15900
F634        F  0.20058171  0.23884731  0.34450286    -0.23400
H635        H  0.15789860  0.24057491  0.31153727     0.17700
C636        C  0.10656314  0.26886223  0.30167662     0.25700
C637        C  0.08382997  0.26885835  0.28362045    -0.12000
C638        C  0.06295523  0.25309364  0.29336218    -0.26000
C639        C  0.06618581  0.23649602  0.32116987     0.36600
C640        C  0.08892374  0.23666745  0.33924891    -0.27600
F641        F  0.12580806  0.28496344  0.29214502    -0.19700
H642        H  0.08330276  0.28091816  0.26165994     0.15900
F643        F  0.04734235  0.21999353  0.33094003    -0.23500
H644        H  0.09075200  0.22405823  0.36079637     0.17800
C645        C  0.39725892  0.25306061  0.38386574    -0.27500
C646        C  0.39393700  0.25105527  0.34941013     0.06100
C647        C  0.36922839  0.24731286  0.33667130     0.25700
C648        C  0.34828517  0.24606588  0.35826395    -0.12000
C649        C  0.35163340  0.24858246  0.39284786    -0.25900
C650        C  0.37656848  0.25213834  0.40533581     0.36500
C651        C  0.41669612  0.25270255  0.32764597     0.06100
F652        F  0.36523422  0.24566215  0.30339615    -0.19700
H653        H  0.32945447  0.24338824  0.34786455     0.15900
F654        F  0.38125194  0.25529575  0.43833503    -0.23400
H655        H  0.41611611  0.25545321  0.39433133     0.17700
C656        C  0.43486319  0.27269651  0.33261251     0.25700
C657        C  0.45816874  0.27193015  0.31588965    -0.12000
C658        C  0.46357692  0.25167214  0.29319424    -0.26000
C659        C  0.44468783  0.23274778  0.28648405     0.36600
C660        C  0.42163390  0.23306127  0.30393144    -0.27600
F661        F  0.43013017  0.29286229  0.35394822    -0.19700
H662        H  0.47208907  0.28717907  0.32072248     0.15900
F663        F  0.44882889  0.21324043  0.26419382    -0.23500
H664        H  0.40802347  0.21739920  0.29975382     0.17800
C665        C  0.24848747  0.36081465  0.33911048    -0.27500
C666        C  0.26072229  0.38471604  0.34680934     0.06100
C667        C  0.27649386  0.38571321  0.37509645     0.25700
C668        C  0.27866110  0.36378020  0.39608753    -0.12000
C669        C  0.26567134  0.34015228  0.38901898    -0.25900
C670        C  0.25118523  0.33866938  0.35963749     0.36500
C671        C  0.25524839  0.40881518  0.32673009     0.06100
F672        F  0.28868676  0.40831123  0.38352144    -0.19700
H673        H  0.29013028  0.36545526  0.41839003     0.15900
F674        F  0.23840223  0.31631721  0.35173268    -0.23400
H675        H  0.23636635  0.35945724  0.31738000     0.17700
C676        C  0.27473156  0.42454448  0.31328602     0.25700
C677        C  0.26881714  0.44689781  0.29423471    -0.12000
C678        C  0.24340673  0.45394933  0.28766503    -0.26000
C679        C  0.22398195  0.43863428  0.30233277     0.36600
C680        C  0.22991477  0.41636111  0.32124711    -0.27600
F681        F  0.29949448  0.41779306  0.31747186    -0.19700
H682        H  0.28427326  0.45821937  0.28398779     0.15900
F683        F  0.19912283  0.44537879  0.29923156    -0.23500
H684        H  0.21455078  0.40503300  0.33201180     0.17800
C685        C  0.24141886  0.11477540  0.37674656    -0.27500
C686        C  0.25103200  0.11623875  0.34425487     0.06100
C687        C  0.26194192  0.14018000  0.33371362     0.25700
C688        C  0.26405690  0.16163761  0.35579795    -0.12000
C689        C  0.25541197  0.15967257  0.38883670    -0.25900
C690        C  0.24346562  0.13608093  0.39870195     0.36500
C691        C  0.24913632  0.09279550  0.32175265     0.06100
F692        F  0.27136418  0.14256151  0.30245003    -0.19700
H693        H  0.27307134  0.17955012  0.34729435     0.15900
F694        F  0.23327844  0.13363507  0.42954766    -0.23400
H695        H  0.23206610  0.09702384  0.38518189     0.17700
C696        C  0.25611994  0.06745332  0.33279524     0.25700
C697        C  0.25249651  0.04529654  0.31239161    -0.12000
C698        C  0.24196397  0.04785322  0.28050010    -0.26000
C699        C  0.23631960  0.07339689  0.26876862     0.36600
C700        C  0.23954830  0.09543318  0.28934390    -0.27600
F701        F  0.26659528  0.06408940  0.36333643    -0.19700
H702        H  0.25734905  0.02603806  0.32193162     0.15900
F703        F  0.22803706  0.07727025  0.23717130    -0.23500
H704        H  0.23411200  0.11459737  0.28003397     0.17800
O705        O  0.26271162  0.70613269  0.40359736    -0.79400
O706        O  0.26130689  0.70838242  0.59724854    -0.81000
O707        O  0.30466749  0.67687634  0.50109824    -0.78000
O708        O  0.22120998  0.67665196  0.50199895    -0.76400
O709        O  0.19084293  0.70862515  0.49886666    -0.78200
O710        O  0.33497431  0.70890382  0.50240981    -0.79100
O711        O  0.26224355  0.67768110  0.55544703    -0.80400
O712        O  0.26211939  0.67608041  0.44596014    -0.80700
Eu713      Eu  0.26288516  0.69840240  0.50043458     2.39200
O714        O  0.23758052  0.72567499  0.53392175    -0.88200
O715        O  0.28860601  0.72429938  0.46593012    -0.91800
C716        C  0.26174790  0.68225636  0.41478680     1.02800
C717        C  0.26157852  0.68429515  0.58647351     1.02700
C718        C  0.32803015  0.68463921  0.50188904     1.02600
C719        C  0.19782947  0.68433258  0.50077463     1.00500
H720        H  0.29853925  0.71433454  0.54929335     0.30200
O721        O  0.28789382  0.72510139  0.53555531    -1.00600
H722        H  0.22684373  0.71331914  0.45140650     0.30300
O723        O  0.23770191  0.72430562  0.46478185    -1.03200
O724        O  0.26208162  0.79723238  0.59481947    -0.80400
O725        O  0.26354087  0.79454595  0.40320218    -0.79900
O726        O  0.33426720  0.75288120  0.55461703    -0.78400
O727        O  0.18986576  0.75000730  0.55097543    -0.81700
O728        O  0.19174266  0.75322826  0.44478850    -0.79600
O729        O  0.33559594  0.74896775  0.44775725    -0.78200
O730        O  0.30457728  0.82559699  0.50009821    -0.79700
O731        O  0.22221027  0.82686277  0.49630526    -0.81700
O732        O  0.33483766  0.79351083  0.50084485    -0.78400
O733        O  0.19195751  0.79478684  0.49701892    -0.81100
O734        O  0.30548873  0.75342687  0.59704633    -0.76800
O735        O  0.30698623  0.74907316  0.40492434    -0.76800
O736        O  0.22092428  0.75289491  0.40275438    -0.76500
O737        O  0.21825598  0.75075505  0.59402295    -0.80000
O738        O  0.26315895  0.82686217  0.55213504    -0.79400
O739        O  0.26419235  0.82583080  0.44432152    -0.77700
Eu740      Eu  0.26225756  0.75230575  0.56982084     2.39800
Eu741      Eu  0.26363452  0.75049439  0.42994943     2.39600
Eu742      Eu  0.31325138  0.75115734  0.50078394     2.38400
Eu743      Eu  0.21253561  0.75145994  0.49860655     2.39900
Eu744      Eu  0.26313090  0.80409005  0.49867488     2.39800
O745        O  0.23806949  0.77738023  0.46419570    -0.92100
O746        O  0.28794739  0.77819599  0.53445616    -0.91000
C747        C  0.26266222  0.82103949  0.58330598     1.03000
C748        C  0.26382453  0.81874282  0.41347492     1.01700
C749        C  0.32867753  0.75360928  0.58573713     1.01100
C750        C  0.19524796  0.74984090  0.58218263     1.03100
C751        C  0.19775643  0.75391173  0.41379173     1.02100
C752        C  0.32998810  0.74830449  0.41657156     1.00900
C753        C  0.32786789  0.81777426  0.50075987     1.01000
C754        C  0.19887772  0.81912243  0.49610444     1.03600
H755        H  0.29994789  0.78809660  0.45159779     0.31000
O756        O  0.28895826  0.77739761  0.46486590    -1.04300
H757        H  0.22609060  0.78966755  0.54659400     0.33000
O758        O  0.23708202  0.77848484  0.53370058    -1.06900
N759        N  0.05010123  0.00142646  0.49745206    -0.35900
N760        N  0.51218105  0.54060287  0.51048068    -0.56500
N761        N  0.47482309  0.00038095  0.50020861    -0.35900
N762        N  0.51345415  0.95981194  0.50126053    -0.56500
C763        C  0.06598439  0.52098569  0.49991778     0.27700
C764        C  0.06393965  0.98052301  0.48736022     0.27700
C765        C  0.45918002  0.52266384  0.50148679     0.27700
C766        C  0.46109375  0.97901661  0.49133125     0.27700
C767        C  0.03430246  0.55544537  0.51468666     0.36300
C768        C  0.49176767  0.55578548  0.51727068     0.36300
C769        C  0.03257876  0.94548625  0.49961272     0.36300
C770        C  0.49264759  0.94476311  0.50627204     0.36300
C771        C  0.08914860  0.51307921  0.48671051    -0.21200
C772        C  0.08665476  0.98903987  0.47363322    -0.21200
C773        C  0.43576395  0.51587957  0.48802440    -0.21200
C774        C  0.43833467  0.98694463  0.47698151    -0.21200
C775        C  0.02735961  0.58052277  0.52487043    -0.22200
C776        C  0.49952713  0.58036941  0.52827187    -0.22200
C777        C  0.02563720  0.92038287  0.50945982    -0.22200
C778        C  0.49976377  0.92007352  0.51755301    -0.22200
C779        C  0.05933701  0.54730172  0.50715206    -0.17600
C780        C  0.05777472  0.95403069  0.49378111    -0.17600
C781        C  0.46753612  0.95268249  0.49871442    -0.17600
C782        C  0.46642537  0.54849292  0.51039433    -0.17600
H783        H  0.10466839  0.52545271  0.47856157     0.15300
H784        H  0.10197563  0.97700692  0.46400909     0.15300
H785        H  0.42018195  0.52888265  0.48177434     0.15300
H786        H  0.42317384  0.97456934  0.46760984     0.15300
H787        H  0.03979792  0.59698263  0.53013095     0.13600
H788        H  0.48759706  0.59692876  0.53490491     0.13600
H789        H  0.03805263  0.90399109  0.51501048     0.13600
H790        H  0.48750923  0.90368970  0.52366388     0.13600
H791        H  0.03410534  0.00052187  0.51257338     0.26900
H792        H  0.49101553  0.00039065  0.51505515     0.26900
O793        O  0.48685264  0.95348075  0.90520574    -0.79400
O794        O  0.48462252  0.95090804  0.09673319    -0.81000
O795        O  0.02676533  0.92267019  0.99705077    -0.78000
O796        O  0.44393735  0.92129491  0.99755281    -0.76400
O797        O  0.41308374  0.95273100  0.99829331    -0.78200
O798        O  0.05671005  0.95507086  0.99721607    -0.79100
O799        O  0.48397585  0.92172149  0.05346047    -0.80400
O800        O  0.48541892  0.92210543  0.94605642    -0.80700
Eu801      Eu  0.48521193  0.94381529  0.99999339     2.39200
O802        O  0.45982165  0.96924545  0.03551918    -0.88200
O803        O  0.00992976  0.97152596  0.96361232    -0.91800
C804        C  0.48645180  0.92929997  0.91542417     1.02800
C805        C  0.48394768  0.92719604  0.08471383     1.02700
C806        C  0.05005237  0.93068746  0.99689459     1.02600
C807        C  0.42044345  0.92857054  0.99703677     1.00500
H808        H  0.02140731  0.95842407  0.04679025     0.30200
O809        O  0.01036584  0.96986066  0.03371519    -1.00600
H810        H  0.44924149  0.95931593  0.95168697     0.30300
O811        O  0.45985654  0.97028019  0.96567824    -1.03200
O812        O  0.48698621  0.54056120  0.09506775    -0.80400
O813        O  0.48310093  0.54317269  0.90422318    -0.79900
O814        O  0.05624141  0.99750558  0.05282693    -0.78400
O815        O  0.41385247  0.99305696  0.05547382    -0.81700
O816        O  0.41311120  0.99681525  0.94702397    -0.79600
O817        O  0.05627420  0.99990774  0.94629015    -0.78200
O818        O  0.02472553  0.57142774  0.00174814    -0.79700
O819        O  0.44122155  0.57036198  0.99711117    -0.81700
O820        O  0.05557349  0.53983662  0.99879881    -0.78400
O821        O  0.41103597  0.53820229  0.99760244    -0.81100
O822        O  0.02784784  0.99542586  0.09585172    -0.76800
O823        O  0.02690347  0.49911111  0.90367532    -0.76800
O824        O  0.44000635  0.49834985  0.90280536    -0.76500
O825        O  0.44277169  0.99419731  0.09795090    -0.80000
O826        O  0.48440148  0.57153476  0.05403778    -0.79400
O827        O  0.48373301  0.57251172  0.94741256    -0.77700
Eu828      Eu  0.48509642  0.99563474  0.07137680     2.39800
Eu829      Eu  0.48508341  0.99780084  0.93170577     2.39600
Eu830      Eu  0.03466058  0.99729352  0.99946236     2.38400
Eu831      Eu  0.43431537  0.99541431  0.00120550     2.39900
Eu832      Eu  0.48333435  0.54962316  0.00018758     2.39800
O833        O  0.45818706  0.52355652  0.96509428    -0.92100
O834        O  0.00966727  0.52301343  0.03476179    -0.91000
C835        C  0.48634241  0.56472152  0.08476244     1.03000
C836        C  0.48341951  0.56688567  0.91619223     1.01700
C837        C  0.05066003  0.99694838  0.08395085     1.01100
C838        C  0.41977208  0.99312532  0.08658936     1.03100
C839        C  0.41688509  0.49847767  0.91424228     1.02100
C840        C  0.05006630  0.49893156  0.91487829     1.00900
C841        C  0.04816095  0.56396198  0.00019691     1.01000
C842        C  0.41791359  0.56245981  0.99628327     1.03600
H843        H  0.01939852  0.53552893  0.95263245     0.31000
O844        O  0.00881368  0.52396627  0.96593082    -1.04300
H845        H  0.44730306  0.53395030  0.04841200     0.33000
O846        O  0.45812776  0.52302641  0.03459222    -1.06900
N847        N  0.27315520  0.74503195  0.00329276    -0.35900
N848        N  0.23324535  0.70553003  0.00516556    -0.56500
N849        N  0.19544260  0.74693164  0.00766823    -0.35900
N850        N  0.23537309  0.78641786  0.00202797    -0.56500
C851        C  0.28630364  0.72322494  0.99466730     0.27700
C852        C  0.28766122  0.76591038  0.99489000     0.27700
C853        C  0.18019065  0.72572346  0.00359409     0.27700
C854        C  0.18123150  0.76853653  0.00141487     0.27700
C855        C  0.25364712  0.68970363  0.00859688     0.36300
C856        C  0.21267948  0.69064894  0.01196056     0.36300
C857        C  0.25638503  0.80137101  0.00610028     0.36300
C858        C  0.21528318  0.80251858  0.00683261     0.36300
C859        C  0.30946484  0.73032671  0.98085032    -0.21200
C860        C  0.31033870  0.75730987  0.98105152    -0.21200
C861        C  0.15581933  0.73401103  0.99554397    -0.21200
C862        C  0.15650530  0.76098207  0.99401196    -0.21200
C863        C  0.24608426  0.66460113  0.01759651    -0.22200
C864        C  0.22004335  0.66516373  0.01958164    -0.22200
C865        C  0.24963161  0.82711584  0.01332534    -0.22200
C866        C  0.22355895  0.82787282  0.01362158    -0.22200
C867        C  0.27874345  0.69709580  0.00092489    -0.17600
C868        C  0.28148189  0.79249882  0.00078303    -0.17600
C869        C  0.18955300  0.79495878  0.00376203    -0.17600
C870        C  0.18733024  0.69915162  0.00827985    -0.17600
H871        H  0.32430604  0.71739750  0.97181321     0.15300
H872        H  0.32592381  0.76924043  0.97207254     0.15300
H873        H  0.13916019  0.72194089  0.99137925     0.15300
H874        H  0.14050354  0.77358499  0.98830255     0.15300
H875        H  0.25802715  0.64754884  0.02158310     0.13600
H876        H  0.20793027  0.64859105  0.02537168     0.13600
H877        H  0.26215103  0.84370121  0.01749673     0.13600
H878        H  0.21202373  0.84513295  0.01826739     0.13600
H879        H  0.25675575  0.74562164  0.01767370     0.26900
H880        H  0.21371521  0.74682140  0.01734785     0.26900
C881        C  0.03659368  0.75071953  0.27367867     0.87200
C882        C  0.03450052  0.72576639  0.25212624    -0.53100
C883        C  0.51180811  0.72220276  0.23452493     0.10100
C884        C  0.49378414  0.74571662  0.24012851     0.21100
C885        C  0.03142230  0.77366525  0.24966572    -0.53800
C886        C  0.50986987  0.77000390  0.23150557     0.10200
C887        C  0.51281434  0.74923892  0.29517024    -0.53300
C888        C  0.49024870  0.74744791  0.27815958     0.10800
H889        H  0.04928231  0.71085846  0.25098702     0.15300
H890        H  0.47578587  0.74458492  0.22574697     0.01000
H891        H  0.04307393  0.79111318  0.24745703     0.15600
H892        H  0.51371438  0.75087830  0.32207000     0.15400
C893        C  0.21365926  0.99811917  0.21791045     0.87200
C894        C  0.21516541  0.97491483  0.24201468    -0.53100
C895        C  0.23564371  0.97520998  0.26298537     0.10100
C896        C  0.25326105  0.99925491  0.25732288     0.21100
C897        C  0.21515987  0.52352621  0.24279304    -0.53800
C898        C  0.23652858  0.52485176  0.26224537     0.10200
C899        C  0.23934682  0.99740005  0.19945013    -0.53300
C900        C  0.25992877  0.99786315  0.22019167     0.10800
H901        H  0.20167018  0.95879917  0.24083523     0.15300
H902        H  0.27025801  0.99997093  0.27366983     0.01000
H903        H  0.20071984  0.53879189  0.24270825     0.15600
H904        H  0.24174392  0.99681918  0.17273301     0.15400
C905        C  0.03610483  0.74488010  0.72743174     0.87200
C906        C  0.03301793  0.76963677  0.74904399    -0.53100
C907        C  0.51178615  0.77172626  0.76477442     0.10100
C908        C  0.49436370  0.74754997  0.76062653     0.21100
C909        C  0.03225382  0.72174583  0.75184182    -0.53800
C910        C  0.51112367  0.72395620  0.77009985     0.10200
C911        C  0.51276104  0.74281469  0.70538276    -0.53300
C912        C  0.49042485  0.74476495  0.72276150     0.10800
H913        H  0.04712717  0.78522864  0.75016027     0.15300
H914        H  0.47640532  0.74865033  0.77507345     0.01000
H915        H  0.04507371  0.70526552  0.75481357     0.15600
H916        H  0.51332573  0.74085536  0.67849533     0.15400
C917        C  0.21013831  0.00169422  0.77176256     0.87200
C918        C  0.21241559  0.52400504  0.74865335    -0.53100
C919        C  0.23450864  0.52418145  0.73071381     0.10100
C920        C  0.25408329  0.00169175  0.74103184     0.21100
C921        C  0.21338381  0.97938966  0.74595464    -0.53800
C922        C  0.23626446  0.97931213  0.73021998     0.10200
C923        C  0.23335521  0.99865156  0.79498345    -0.53300
C924        C  0.25650387  0.99859108  0.77913079     0.10800
H925        H  0.19855303  0.53981026  0.74773621     0.15300
H926        H  0.27243891  0.00155357  0.72743124     0.01000
H927        H  0.19974595  0.96404280  0.74069462     0.15600
H928        H  0.23139918  0.99744370  0.82178424     0.15400
C929        C  0.11713017  0.51054683  0.11589284    -0.27500
C930        C  0.11786157  0.99811924  0.14425992     0.06100
C931        C  0.09705037  0.98223455  0.15355081     0.25700
C932        C  0.07445088  0.98275079  0.13499028    -0.12000
C933        C  0.07256975  0.99873464  0.10671481    -0.25900
C934        C  0.09537042  0.51131900  0.09621865     0.36500
C935        C  0.14237105  0.99726786  0.16248253     0.06100
F936        F  0.09898705  0.96533907  0.17951010    -0.19700
H937        H  0.05894274  0.96979993  0.14173319     0.15900
F938        F  0.09627587  0.52506090  0.06731715    -0.23400
H939        H  0.13373521  0.52136838  0.10777954     0.17700
C940        C  0.16529504  0.49092535  0.14835031     0.25700
C941        C  0.18821963  0.49232479  0.16588537    -0.12000
C942        C  0.18911294  0.99757327  0.19759309    -0.26000
C943        C  0.16563291  0.99890958  0.21459061     0.36600
C944        C  0.14267290  0.99889066  0.19722434    -0.27600
F945        F  0.16607073  0.48555970  0.11525195    -0.19700
H946        H  0.20535453  0.48886354  0.15190376     0.15900
F947        F  0.16490021  0.00054545  0.24828386    -0.23500
H948        H  0.12506350  0.00061102  0.21101212     0.17800
C949        C  0.31516286  0.51890044  0.16507673    -0.27500
C950        C  0.33337370  0.99651845  0.17510051     0.06100
C951        C  0.32535165  0.97515332  0.19457031     0.25700
C952        C  0.30175598  0.97608054  0.21062947    -0.12000
C953        C  0.28610006  0.99826131  0.20737998    -0.25900
C954        C  0.29179051  0.52004568  0.18151476     0.36500
C955        C  0.35573478  0.99435726  0.15308866     0.06100
F956        F  0.33944612  0.95281431  0.19613921    -0.19700
H957        H  0.29512803  0.95898806  0.22405536     0.15900
F958        F  0.27488718  0.53909317  0.17304903    -0.23400
H959        H  0.31920773  0.53300595  0.14563343     0.17700
C960        C  0.35272516  0.99889889  0.11893683     0.25700
C961        C  0.37360838  0.99811649  0.09787689    -0.12000
C962        C  0.39810739  0.99266054  0.11016332    -0.26000
C963        C  0.40105693  0.98717645  0.14431635     0.36600
C964        C  0.37992625  0.98804559  0.16559102    -0.27600
F965        F  0.32891472  0.48788061  0.10420703    -0.19700
H966        H  0.37018422  0.48603212  0.07042989     0.15900
F967        F  0.42413619  0.98081641  0.15711626    -0.23500
H968        H  0.38248415  0.98420552  0.19186091     0.17800
C969        C  0.01194577  0.82326768  0.16511054    -0.27500
C970        C  0.49124212  0.83583960  0.16987887     0.06100
C971        C  0.47577261  0.82951710  0.19722721     0.25700
C972        C  0.48099657  0.80706289  0.21624417    -0.12000
C973        C  0.50192918  0.79104769  0.20850945    -0.25900
C974        C  0.01774244  0.80116617  0.18415497     0.36500
C975        C  0.48657200  0.85953996  0.14945827     0.06100
F976        F  0.45574878  0.84504964  0.20551710    -0.17100
H977        H  0.46934583  0.80272801  0.23775186     0.15900
F978        F  0.03965264  0.78787335  0.17802355    -0.23400
H979        H  0.02507510  0.82932737  0.14584345     0.17700
C980        C  0.98272257  0.88650744  0.16234037     0.25700
C981        C  0.98155891  0.90815831  0.14065751    -0.12000
C982        C  0.48349663  0.90413027  0.10758401    -0.26000
C983        C  0.48055621  0.87834534  0.09464653     0.36600
C984        C  0.48232990  0.85650780  0.11535774    -0.27600
F985        F  0.98379296  0.89078776  0.19564336    -0.19700
H986        H  0.98133702  0.92781451  0.15110925     0.15900
F987        F  0.47633527  0.87388549  0.06178804    -0.23500
H988        H  0.48074506  0.83699872  0.10460627     0.17800
C989        C  0.51116131  0.67682976  0.15975010    -0.27500
C990        C  0.49894165  0.65446694  0.17268478     0.06100
C991        C  0.99419143  0.65419267  0.20944835     0.25700
C992        C  0.99906397  0.67664992  0.22882181    -0.12000
C993        C  0.50620143  0.69961489  0.21256454    -0.25900
C994        C  0.51494319  0.69919334  0.17958700     0.36500
C995        C  0.49475881  0.63099356  0.15128541     0.06100
F996        F  0.98637378  0.63184792  0.22473334    -0.19700
H997        H  0.99712979  0.67555923  0.25560325     0.15900
F998        F  0.52747508  0.72021574  0.16681710    -0.23400
H999        H  0.51807128  0.67679572  0.13437598     0.17700
C1000       C  0.48172558  0.63344670  0.12099983     0.25700
C1001       C  0.47854163  0.61163462  0.10023081    -0.12000
C1002       C  0.48814494  0.58674602  0.10912821    -0.26000
C1003       C  0.00168152  0.58488937  0.14042448     0.36600
C1004       C  0.00440134  0.60699439  0.16130127    -0.27600
F1005       F  0.47177535  0.65694323  0.11165425    -0.19700
H1006       H  0.46855904  0.61431927  0.07690842     0.15900
F1007       F  0.01454822  0.56252718  0.14790748    -0.23500
H1008       H  0.01651230  0.60553000  0.18301391     0.17800
C1009       C  0.14911257  0.85219516  0.97493197    -0.27500
C1010       C  0.13187957  0.85467135  0.00144159     0.06100
C1011       C  0.13402389  0.83767091  0.02886294     0.25700
C1012       C  0.15308352  0.81859746  0.02964455    -0.12000
C1013       C  0.17001736  0.81593719  0.00297822    -0.25900
C1014       C  0.16792607  0.83278859  0.97550186     0.36500
C1015       C  0.11103583  0.87415704  0.99972517     0.06100
F1016       F  0.11774494  0.83955653  0.05493963    -0.19700
H1017       H  0.15451422  0.80563609  0.05090360     0.15900
F1018       F  0.18363614  0.82995746  0.94895483    -0.23400
H1019       H  0.14749466  0.86478341  0.95334641     0.17700
C1020       C  0.11597776  0.90069449  0.99255864     0.25700
C1021       C  0.09601638  0.91878279  0.99118241    -0.12000
C1022       C  0.07073159  0.91082228  0.99690084    -0.26000
C1023       C  0.06585845  0.88410144  0.00366046     0.36600
C1024       C  0.08585533  0.86606287  0.00501280    -0.27600
F1025       F  0.14014626  0.90928831  0.98776666    -0.19700
H1026       H  0.10046959  0.93914177  0.98585163     0.15900
F1027       F  0.04191406  0.87533165  0.00959179    -0.23500
H1028       H  0.08163586  0.84560715  0.01009438     0.17800
C1029       C  0.34113033  0.83101611  0.02115458    -0.27500
C1030       C  0.34148692  0.84945490  0.99521677     0.06100
C1031       C  0.32245391  0.84858349  0.97068149     0.25700
C1032       C  0.30289019  0.83013579  0.97278206    -0.12000
C1033       C  0.30222586  0.81213909  0.99909625    -0.25900
C1034       C  0.32169409  0.81235772  0.02304221     0.36500
C1035       C  0.36166046  0.86961797  0.99408996     0.06100
F1036       F  0.32315317  0.86514669  0.94429367    -0.19700
H1037       H  0.28831099  0.82968696  0.95373784     0.15900
F1038       F  0.32179327  0.79460145  0.04820476    -0.23400
H1039       H  0.35577457  0.83129008  0.04012183     0.17700
C1040       C  0.35546486  0.89646259  0.99282721     0.25700
C1041       C  0.37466797  0.91540066  0.99332295    -0.12000
C1042       C  0.40045407  0.90799259  0.99497748    -0.26000
C1043       C  0.40657021  0.88095416  0.99518996     0.36600
C1044       C  0.38728283  0.86205438  0.99509909    -0.27600
F1045       F  0.33081109  0.90441496  0.99223847    -0.19700
H1046       H  0.36921810  0.93594363  0.99282487     0.15900
F1047       F  0.43108755  0.87261202  0.99575115    -0.23500
H1048       H  0.39234907  0.84140008  0.99573020     0.17800
C1049       C  0.31890198  0.64082772  0.96908156    -0.27500
C1050       C  0.33723796  0.63899585  0.99435902     0.06100
C1051       C  0.33585593  0.65589460  0.02202713     0.25700
C1052       C  0.31649129  0.67448928  0.02419202    -0.12000
C1053       C  0.29833957  0.67643144  0.99885818    -0.25900
C1054       C  0.29954590  0.65955048  0.97123216     0.36500
C1055       C  0.35787841  0.61955275  0.99200698     0.06100
F1056       F  0.35305150  0.65415032  0.04712985    -0.19700
H1057       H  0.31566573  0.68752104  0.04553433     0.15900
F1058       F  0.28234953  0.66162893  0.94618056    -0.23400
H1059       H  0.31986729  0.62806271  0.94749895     0.17700
C1060       C  0.35244583  0.59269893  0.98830919     0.25700
C1061       C  0.37212681  0.57432035  0.98899379    -0.12000
C1062       C  0.39752491  0.58240407  0.99364065    -0.26000
C1063       C  0.40289089  0.60949403  0.99619945     0.36600
C1064       C  0.38318710  0.62780613  0.99527757    -0.27600
F1065       F  0.32805338  0.58416588  0.98564077    -0.19700
H1066       H  0.36733676  0.55368024  0.98655345     0.15900
F1067       F  0.42700075  0.61840345  0.00054924    -0.23500
H1068       H  0.38763695  0.64853117  0.99777329     0.17800
C1069       C  0.08469330  0.62653076  0.01816421    -0.27500
C1070       C  0.10745677  0.62184259  0.00093709     0.06100
C1071       C  0.11035491  0.59835321  0.98283121     0.25700
C1072       C  0.09088362  0.57969723  0.98254424    -0.12000
C1073       C  0.06810160  0.58432503  0.99986482    -0.25900
C1074       C  0.06502968  0.60807473  0.01742155     0.36500
C1075       C  0.12823636  0.64131052  0.00264444     0.06100
F1076       F  0.13226749  0.59311768  0.96623830    -0.19700
H1077       H  0.09361133  0.56158414  0.96872050     0.15900
F1078       F  0.04341220  0.61308125  0.03475800    -0.23400
H1079       H  0.08216634  0.64457027  0.03219431     0.17700
C1080       C  0.13890589  0.65175482  0.97348208     0.25700
C1081       C  0.15833121  0.67038093  0.97556311    -0.12000
C1082       C  0.16722943  0.67887922  0.00665001    -0.26000
C1083       C  0.15676136  0.66840932  0.03579608     0.36600
C1084       C  0.13731498  0.64976749  0.03376073    -0.27600
F1085       F  0.13007817  0.64449393  0.94308017    -0.19700
H1086       H  0.16627277  0.67848814  0.95295247     0.15900
F1087       F  0.16539480  0.67624013  0.06606384    -0.23500
H1088       H  0.12939496  0.64179011  0.05645526     0.17800
C1089       C  0.30750889  0.98076987  0.84331780    -0.27500
C1090       C  0.32724225  0.49693310  0.82883929     0.06100
C1091       C  0.32514934  0.51035213  0.79841349     0.25700
C1092       C  0.30199458  0.51056466  0.78094862    -0.12000
C1093       C  0.28154726  0.99630427  0.79688932    -0.25900
C1094       C  0.28421041  0.98146318  0.82632054     0.36500
C1095       C  0.35072222  0.49852789  0.84955894     0.06100
F1096       F  0.34514093  0.52420256  0.78630716    -0.19700
H1097       H  0.30072335  0.52181659  0.75828619     0.15900
F1098       F  0.26452448  0.96720629  0.83854987    -0.23400
H1099       H  0.30885953  0.96970134  0.86623445     0.17700
C1100       C  0.35131560  0.00544194  0.88437635     0.25700
C1101       C  0.37309285  0.00650631  0.90424510    -0.12000
C1102       C  0.39474871  0.49939165  0.89077539    -0.26000
C1103       C  0.39630267  0.49078194  0.85744447     0.36600
C1104       C  0.37448474  0.49048444  0.83708021    -0.27600
F1105       F  0.32893973  0.01419880  0.89709251    -0.19700
H1106       H  0.37117952  0.01401868  0.92935771     0.15900
F1107       F  0.41856410  0.48165734  0.84488095    -0.23500
H1108       H  0.37599647  0.48327423  0.81178731     0.17800
C1109       C  0.09080924  0.50532771  0.83651780    -0.27500
C1110       C  0.11605243  0.00425653  0.85009861     0.06100
C1111       C  0.11877940  0.00455108  0.88478950     0.25700
C1112       C  0.09740827  0.00386464  0.90527091    -0.12000
C1113       C  0.07208450  0.49997983  0.89155317    -0.25900
C1114       C  0.06927588  0.50399135  0.85709008     0.36500
C1115       C  0.13898002  0.00451944  0.82845204     0.06100
F1116       F  0.14221723  0.00453710  0.89901398    -0.19700
H1117       H  0.10053098  0.00408294  0.93189114     0.15900
F1118       F  0.04590512  0.50685591  0.84324823    -0.23400
H1119       H  0.08829503  0.50850077  0.81009739     0.17700
C1120       C  0.14046995  0.48606906  0.80135289     0.25700
C1121       C  0.16282827  0.48524295  0.78267414    -0.12000
C1122       C  0.18469438  0.00278473  0.79061406    -0.26000
C1123       C  0.18063284  0.02264763  0.81468181     0.36600
C1124       C  0.15813954  0.02340129  0.83331726    -0.27600
F1125       F  0.12131776  0.46918264  0.79372210    -0.19700
H1126       H  0.16302657  0.47197575  0.76174781     0.15900
F1127       F  0.19861621  0.04127140  0.82049162    -0.23500
H1128       H  0.15574401  0.03871573  0.85184162     0.17800
C1129       C  0.99129818  0.60932243  0.84088140    -0.27500
C1130       C  0.48838103  0.63499237  0.85306602     0.06100
C1131       C  0.48324211  0.63758180  0.88705935     0.25700
C1132       C  0.48097311  0.61531507  0.90688955    -0.12000
C1133       C  0.48380543  0.58983533  0.89336158    -0.25900
C1134       C  0.98946149  0.58699829  0.86117739     0.36500
C1135       C  0.49325890  0.65864648  0.83283284     0.06100
F1136       F  0.48058520  0.66173850  0.90114776    -0.19700
H1137       H  0.47732717  0.61821409  0.93314941     0.15900
F1138       F  0.99640053  0.56328706  0.84852641    -0.23400
H1139       H  0.99816757  0.60713033  0.81563810     0.17700
C1140       C  0.00809145  0.67716883  0.84324447     0.25700
C1141       C  0.01406404  0.69844576  0.82261885    -0.12000
C1142       C  0.50349269  0.70300639  0.79337813    -0.26000
C1143       C  0.48251948  0.68685695  0.78617113     0.36600
C1144       C  0.47760650  0.66464340  0.80562831    -0.27600
F1145       F  0.02044823  0.67457012  0.87271122    -0.19700
H1146       H  0.02838250  0.71246816  0.83049751     0.15900
F1147       F  0.46761198  0.69180976  0.75935069    -0.23500
H1148       H  0.46168926  0.65202391  0.79940728     0.17800
C1149       C  0.00606989  0.81725572  0.83994282    -0.27500
C1150       C  0.49770597  0.83968675  0.82680986     0.06100
C1151       C  0.50413305  0.84245245  0.79288736     0.25700
C1152       C  0.50847218  0.82028851  0.77299849    -0.12000
C1153       C  0.50581913  0.79485470  0.78594026    -0.25900
C1154       C  0.01061555  0.79447189  0.82114270     0.36500
C1155       C  0.49383106  0.86328658  0.84875891     0.06100
F1156       F  0.50582921  0.86650637  0.77851955    -0.19700
H1157       H  0.51369328  0.82299414  0.74717557     0.15900
F1158       F  0.02187072  0.77342687  0.83577125    -0.23400
H1159       H  0.01153396  0.81752130  0.86591786     0.17700
C1160       C  0.97828776  0.86203980  0.87658703     0.25700
C1161       C  0.97570061  0.88420283  0.89692192    -0.12000
C1162       C  0.48770833  0.90776475  0.89079142    -0.26000
C1163       C  0.50583486  0.90803550  0.86528369     0.36600
C1164       C  0.50914518  0.88589018  0.84494200    -0.27600
F1165       F  0.96885165  0.83870549  0.88733418    -0.19700
H1166       H  0.96632114  0.88191758  0.92071941     0.15900
F1167       F  0.52143411  0.92907517  0.86137585    -0.23500
H1168       H  0.52435309  0.88626299  0.82686148     0.17800
C1169       C  0.39732231  0.75522307  0.61671703    -0.27500
C1170       C  0.39476465  0.74993810  0.65065679     0.06100
C1171       C  0.37012060  0.74778803  0.66411570     0.25700
C1172       C  0.34849574  0.74971012  0.64343366    -0.12000
C1173       C  0.35108432  0.75409359  0.60900208    -0.25900
C1174       C  0.37600765  0.75755298  0.59621543     0.36500
C1175       C  0.41813168  0.74687333  0.67131940     0.06100
F1176       F  0.36702903  0.74285457  0.69700452    -0.19700
H1177       H  0.32981035  0.74712660  0.65423013     0.15900
F1178       F  0.38013153  0.76302930  0.56364041    -0.23400
H1179       H  0.41606706  0.75759896  0.60594574     0.17700
C1180       C  0.43685535  0.72827118  0.66259987     0.25700
C1181       C  0.45999520  0.72728963  0.67986375    -0.12000
C1182       C  0.46500738  0.74477103  0.70621381    -0.26000
C1183       C  0.44600970  0.76288962  0.71554259     0.36600
C1184       C  0.42282782  0.76387918  0.69822081    -0.27600
F1185       F  0.43278222  0.71108710  0.63723730    -0.19700
H1186       H  0.47412135  0.71290401  0.67248121     0.15900
F1187       F  0.45034368  0.78066936  0.74013566    -0.23500
H1188       H  0.40887638  0.77861510  0.70502885     0.17800
C1189       C  0.15349867  0.74942036  0.66025572    -0.27500
C1190       C  0.12894270  0.74856456  0.64630237     0.06100
C1191       C  0.12651073  0.74741312  0.61158449     0.25700
C1192       C  0.14810018  0.74749822  0.59137329    -0.12000
C1193       C  0.17284098  0.74879257  0.60506943    -0.25900
C1194       C  0.17525789  0.74940845  0.63995927     0.36500
C1195       C  0.10590770  0.74806743  0.66783466     0.06100
F1196       F  0.10322078  0.74552269  0.59713663    -0.19700
H1197       H  0.14524486  0.74654834  0.56472361     0.15900
F1198       F  0.19851680  0.74998699  0.65456169    -0.23400
H1199       H  0.15581937  0.75022875  0.68700047     0.17700
C1200       C  0.10330880  0.72914621  0.69294407     0.25700
C1201       C  0.08113259  0.72795027  0.71219357    -0.12000
C1202       C  0.06078994  0.74561332  0.70690383    -0.26000
C1203       C  0.06388774  0.76504304  0.68210336     0.36600
C1204       C  0.08601603  0.76604170  0.66273550    -0.27600
F1205       F  0.12199298  0.71121357  0.69825367    -0.19700
H1206       H  0.08045762  0.71314932  0.73126918     0.15900
F1207       F  0.04534879  0.78308246  0.67638129    -0.23500
H1208       H  0.08767139  0.78100152  0.64372703     0.17800
C1209       C  0.24707109  0.64157917  0.66233785    -0.27500
C1210       C  0.25604410  0.61693089  0.65144018     0.06100
C1211       C  0.26800993  0.61510874  0.62042155     0.25700
C1212       C  0.27053184  0.63735136  0.60037380    -0.12000
C1213       C  0.26107232  0.66203537  0.61058395    -0.25900
C1214       C  0.24969504  0.66405693  0.64225191     0.36500
C1215       C  0.25109943  0.59271960  0.67095939     0.06100
F1216       F  0.27612107  0.59147766  0.60874677    -0.19700
H1217       H  0.27944944  0.63504261  0.57626709     0.15900
F1218       F  0.23996320  0.68728578  0.65309157    -0.23400
H1219       H  0.23755040  0.64326199  0.68612826     0.17700
C1220       C  0.27091981  0.57879248  0.68649641     0.25700
C1221       C  0.26571055  0.55583683  0.70466865    -0.12000
C1222       C  0.24070242  0.54629148  0.70749091    -0.26000
C1223       C  0.22123540  0.55940492  0.68980340     0.36600
C1224       C  0.22638461  0.58255054  0.67231311    -0.27600
F1225       F  0.29518010  0.58779811  0.68482681    -0.19700
H1226       H  0.28114287  0.54612011  0.71739802     0.15900
F1227       F  0.19720223  0.54968233  0.68887056    -0.23500
H1228       H  0.21105071  0.59243408  0.65937156     0.17800
C1229       C  0.26701793  0.91744812  0.69676756    -0.27500
C1230       C  0.25237710  0.91259699  0.66821455     0.06100
C1231       C  0.23331717  0.93064043  0.65914551     0.25700
C1232       C  0.22873051  0.95289511  0.67879120    -0.12000
C1233       C  0.24339143  0.95773861  0.70733050    -0.25900
C1234       C  0.26274649  0.94000912  0.71605239     0.36500
C1235       C  0.25705939  0.88884851  0.64773798     0.06100
F1236       F  0.21863571  0.92625915  0.63188916    -0.19700
H1237       H  0.21346500  0.96618353  0.67207133     0.15900
F1238       F  0.27666830  0.94387310  0.74407137    -0.23400
H1239       H  0.28173927  0.90372269  0.70408825     0.17700
C1240       C  0.26511249  0.89141156  0.61471542     0.25700
C1241       C  0.26778776  0.86918439  0.59457188    -0.12000
C1242       C  0.26230232  0.84380881  0.60676086    -0.26000
C1243       C  0.25525662  0.84120376  0.64042139     0.36600
C1244       C  0.25273424  0.86360108  0.66068285    -0.27600
F1245       F  0.27023942  0.91551364  0.60188291    -0.19700
H1246       H  0.27376342  0.87200791  0.56906202     0.15900
F1247       F  0.24986325  0.81726101  0.65347421    -0.23500
H1248       H  0.24662065  0.86132783  0.68623040     0.17800
C1249       C  0.39281165  0.65176629  0.49872751    -0.27500
C1250       C  0.38618658  0.62517821  0.50135782     0.06100
C1251       C  0.36044334  0.61814164  0.50408388     0.25700
C1252       C  0.34167810  0.63756685  0.50431563    -0.12000
C1253       C  0.34823256  0.66433456  0.50194797    -0.25900
C1254       C  0.37416068  0.67123460  0.49921179     0.36500
C1255       C  0.40647113  0.60521255  0.50315152     0.06100
F1256       F  0.35342374  0.59250042  0.50616762    -0.19700
H1257       H  0.32198622  0.63156478  0.50646298     0.15900
F1258       F  0.38172436  0.69671309  0.49721085    -0.23400
H1259       H  0.41261160  0.65751849  0.49708191     0.17700
C1260       C  0.42553032  0.60397973  0.47867969     0.25700
C1261       C  0.44545062  0.58599646  0.48175287    -0.12000
C1262       C  0.44665991  0.56917811  0.50926297    -0.26000
C1263       C  0.42776876  0.57051455  0.53384829     0.36600
C1264       C  0.40775035  0.58837324  0.53069404    -0.27600
F1265       F  0.42461527  0.61983768  0.45159366    -0.19700
H1266       H  0.45973849  0.58481385  0.46241032     0.15900
F1267       F  0.42874245  0.55455000  0.56080719    -0.23500
H1268       H  0.39346534  0.58941341  0.55005277     0.17800
C1269       C  0.13408080  0.64952680  0.49219790    -0.27500
C1270       C  0.13991509  0.62430252  0.50399324     0.06100
C1271       C  0.16482857  0.61880922  0.51451489     0.25700
C1272       C  0.18352450  0.63836703  0.51329717    -0.12000
C1273       C  0.17772003  0.66380631  0.50174879    -0.25900
C1274       C  0.15265818  0.66917312  0.49120499     0.36500
C1275       C  0.11983081  0.60393628  0.50486735     0.06100
F1276       F  0.17121697  0.59438633  0.52524799    -0.19700
H1277       H  0.20257184  0.63358053  0.52158570     0.15900
F1278       F  0.14607909  0.69321645  0.47937529    -0.23400
H1279       H  0.11496199  0.65406197  0.48393114     0.17700
C1280       C  0.11307646  0.59160736  0.53486903     0.25700
C1281       C  0.09308054  0.57348745  0.53553648    -0.12000
C1282       C  0.07981338  0.56725617  0.50632078    -0.26000
C1283       C  0.08695441  0.57896736  0.47618973     0.36600
C1284       C  0.10666420  0.59739634  0.47558023    -0.27600
F1285       F  0.12541161  0.59752283  0.56359236    -0.19700
H1286       H  0.08793640  0.56422416  0.55880685     0.15900
F1287       F  0.07514068  0.57217896  0.44738859    -0.23500
H1288       H  0.11184048  0.60645064  0.45219123     0.17800
C1289       C  0.11843481  0.91883001  0.51897232    -0.27500
C1290       C  0.11916874  0.89801589  0.49588255     0.06100
C1291       C  0.09962152  0.89598581  0.47197997     0.25700
C1292       C  0.07965773  0.91405524  0.47162115    -0.12000
C1293       C  0.07888022  0.93464040  0.49477098    -0.25900
C1294       C  0.09858741  0.93715021  0.51826230     0.36500
C1295       C  0.13989988  0.87815615  0.49683959     0.06100
F1296       F  0.10009453  0.87686249  0.44836741    -0.19700
H1297       H  0.06486505  0.91218211  0.45299857     0.15900
F1298       F  0.09851022  0.95726935  0.54056275    -0.23400
H1299       H  0.13303031  0.92073269  0.53783918     0.17700
C1300       C  0.16562065  0.88548414  0.50003908     0.25700
C1301       C  0.18473050  0.86629416  0.49937134    -0.12000
C1302       C  0.17861989  0.83947498  0.49545319    -0.26000
C1303       C  0.15286452  0.83234001  0.49192301     0.36600
C1304       C  0.13386592  0.85139789  0.49334423    -0.27600
F1305       F  0.17238954  0.91115851  0.50303294    -0.19700
H1306       H  0.20433552  0.87249927  0.50201225     0.15900
F1307       F  0.14581699  0.80696890  0.48673318    -0.23500
H1308       H  0.11423354  0.84512248  0.49150922     0.17800
C1309       C  0.39218745  0.85081754  0.50709707    -0.27500
C1310       C  0.38596858  0.87688822  0.49935480     0.06100
C1311       C  0.36056750  0.88358498  0.49269719     0.25700
C1312       C  0.34173863  0.86430001  0.49356970    -0.12000
C1313       C  0.34793135  0.83804936  0.50101331    -0.25900
C1314       C  0.37342101  0.83152044  0.50807560     0.36500
C1315       C  0.40628793  0.89677073  0.49832967     0.06100
F1316       F  0.35405836  0.90857244  0.48445245    -0.19700
H1317       H  0.32234869  0.86991170  0.48786091     0.15900
F1318       F  0.38032213  0.80662692  0.51623618    -0.23400
H1319       H  0.41167217  0.84544911  0.51267079     0.17700
C1320       C  0.40483244  0.91959054  0.51796936     0.25700
C1321       C  0.42511786  0.93723075  0.51859245    -0.12000
C1322       C  0.44673910  0.93288767  0.49878611    -0.26000
C1323       C  0.44780880  0.91042724  0.47835861     0.36600
C1324       C  0.42788380  0.89231497  0.47861203    -0.27600
F1325       F  0.38411469  0.92448955  0.53714465    -0.19700
H1326       H  0.42390707  0.95451721  0.53434004     0.15900
F1327       F  0.46796817  0.90615579  0.45798406    -0.23500
H1328       H  0.42914966  0.87488544  0.46312423     0.17800
C1329       C  0.15596032  0.75053988  0.33582872    -0.27500
C1330       C  0.13181041  0.75542526  0.34962364     0.06100
C1331       C  0.12996018  0.76165937  0.38346301     0.25700
C1332       C  0.15164070  0.76211460  0.40337847    -0.12000
C1333       C  0.17583446  0.75592008  0.39032993    -0.25900
C1334       C  0.17786197  0.75067006  0.35598522     0.36500
C1335       C  0.10834990  0.75363509  0.32923064     0.06100
F1336       F  0.10705261  0.76726425  0.39735314    -0.19700
H1337       H  0.14924476  0.76691034  0.42944832     0.15900
F1338       F  0.20068292  0.74478937  0.34209160    -0.23400
H1339       H  0.15772720  0.74586041  0.30963817     0.17700
C1340       C  0.10447103  0.77042568  0.30217940     0.25700
C1341       C  0.08165952  0.76951481  0.28425724    -0.12000
C1342       C  0.06181465  0.75203944  0.29311590    -0.26000
C1343       C  0.06634667  0.73461303  0.31978786     0.36600
C1344       C  0.08916758  0.73568742  0.33776411    -0.27600
F1345       F  0.12255332  0.78818630  0.29350093    -0.19700
H1346       H  0.08030163  0.78232720  0.26306105     0.15900
F1347       F  0.04866595  0.71649763  0.32865438    -0.23500
H1348       H  0.09192991  0.72239001  0.35846143     0.17800
C1349       C  0.39709515  0.73916138  0.38335860    -0.27500
C1350       C  0.39473697  0.74751824  0.35036062     0.06100
C1351       C  0.37053121  0.75447502  0.33825752     0.25700
C1352       C  0.34931540  0.75422598  0.35954495    -0.12000
C1353       C  0.35187211  0.74674063  0.39307433    -0.25900
C1354       C  0.37604691  0.73853516  0.40443157     0.36500
C1355       C  0.41801485  0.74934396  0.32959947     0.06100
F1356       F  0.36756061  0.76233688  0.30627331    -0.19700
H1357       H  0.33103334  0.76048136  0.34999026     0.15900
F1358       F  0.37953158  0.72975205  0.43595931    -0.23400
H1359       H  0.41546954  0.73315141  0.39291714     0.17700
C1360       C  0.43830132  0.76547037  0.33982176     0.25700
C1361       C  0.46138225  0.76514345  0.32257346    -0.12000
C1362       C  0.46497050  0.74842104  0.29505176    -0.26000
C1363       C  0.44452000  0.73246829  0.28456940     0.36600
C1364       C  0.42119101  0.73316090  0.30155996    -0.27600
F1365       F  0.43587261  0.78130511  0.36688818    -0.19700
H1366       H  0.47658431  0.77790701  0.33098179     0.15900
F1367       F  0.44747803  0.71503895  0.25925683    -0.23500
H1368       H  0.40596674  0.72018008  0.29375117     0.17800
C1369       C  0.24613524  0.85963926  0.33782046    -0.27500
C1370       C  0.25770519  0.88389460  0.34533119     0.06100
C1371       C  0.27266454  0.88593649  0.37421685     0.25700
C1372       C  0.27520656  0.86441021  0.39563819    -0.12000
C1373       C  0.26321337  0.84027226  0.38853760    -0.25900
C1374       C  0.24902502  0.83793873  0.35897726     0.36500
C1375       C  0.25245888  0.90741564  0.32443384     0.06100
F1376       F  0.28371532  0.90914902  0.38266697    -0.19700
H1377       H  0.28622393  0.86677520  0.41823158     0.15900
F1378       F  0.23675559  0.81518982  0.35145974    -0.23400
H1379       H  0.23443919  0.85766424  0.31576540     0.17700
C1380       C  0.27220767  0.92259284  0.31074069     0.25700
C1381       C  0.26666932  0.94499852  0.29173148    -0.12000
C1382       C  0.24136191  0.95266791  0.28574510    -0.26000
C1383       C  0.22164917  0.93755676  0.30004165     0.36600
C1384       C  0.22722848  0.91518137  0.31886014    -0.27600
F1385       F  0.29683640  0.91530403  0.31487991    -0.19700
H1386       H  0.28228022  0.95589364  0.28101756     0.15900
F1387       F  0.19688988  0.94459907  0.29662419    -0.23500
H1388       H  0.21172569  0.90405497  0.32962615     0.17800
C1389       C  0.24318544  0.61597536  0.37807230    -0.27500
C1390       C  0.25472716  0.61641025  0.34663758     0.06100
C1391       C  0.26791991  0.63929456  0.33692676     0.25700
C1392       C  0.27014115  0.66085722  0.35883638    -0.12000
C1393       C  0.25908565  0.66004387  0.39069440    -0.25900
C1394       C  0.24513407  0.63748195  0.39972052     0.36500
C1395       C  0.25208147  0.59315107  0.32409056     0.06100
F1396       F  0.27910189  0.64056163  0.30656295    -0.19700
H1397       H  0.28080736  0.67800463  0.35109795     0.15900
F1398       F  0.23263083  0.63649135  0.42922172    -0.23400
H1399       H  0.23222640  0.59899325  0.38571114     0.17700
C1400       C  0.25866210  0.56766499  0.33485962     0.25700
C1401       C  0.25405247  0.54563187  0.31451865    -0.12000
C1402       C  0.24277450  0.54850765  0.28304447    -0.26000
C1403       C  0.23738547  0.57419679  0.27168781     0.36600
C1404       C  0.24181585  0.59613215  0.29210781    -0.27600
F1405       F  0.26972204  0.56411439  0.36502498    -0.19700
H1406       H  0.25878903  0.52624201  0.32373455     0.15900
F1407       F  0.22829676  0.57827668  0.24052858    -0.23500
H1408       H  0.23679167  0.61550977  0.28309192     0.17800
O1409       O  0.76172160  0.20564694  0.39983525    -0.79400
O1410       O  0.76195448  0.20867230  0.59335460    -0.81000
O1411       O  0.80495483  0.17631615  0.49748047    -0.78000
O1412       O  0.72206939  0.17557087  0.50033401    -0.76400
O1413       O  0.69194777  0.20783958  0.49819567    -0.78200
O1414       O  0.83499691  0.20860383  0.49921340    -0.79100
O1415       O  0.76302570  0.17727469  0.55235103    -0.80400
O1416       O  0.76097537  0.17579075  0.44240690    -0.80700
Eu1417     Eu  0.76332058  0.19787755  0.49716189     2.39200
O1418       O  0.73825178  0.22520757  0.53100176    -0.88200
O1419       O  0.78892050  0.22380268  0.46240157    -0.91800
C1420       C  0.76030927  0.18185652  0.41118429     1.02800
C1421       C  0.76225779  0.18441505  0.58320376     1.02700
C1422       C  0.82822375  0.18429421  0.49861911     1.02600
C1423       C  0.69877583  0.18351052  0.50004904     1.00500
H1424       H  0.79906054  0.21428162  0.54581729     0.30200
O1425       O  0.78836270  0.22489788  0.53197844    -1.00600
H1426       H  0.72701678  0.21281599  0.44880159     0.30300
O1427       O  0.73806662  0.22385360  0.46182246    -1.03200
O1428       O  0.76152619  0.29794855  0.58962670    -0.80400
O1429       O  0.76421871  0.29365223  0.39848637    -0.79900
O1430       O  0.83491344  0.25328399  0.55104290    -0.78400
O1431       O  0.69092144  0.24981898  0.54917895    -0.81700
O1432       O  0.69204048  0.25103461  0.44236818    -0.79600
O1433       O  0.83548132  0.24855653  0.44432588    -0.78200
O1434       O  0.80555321  0.32543679  0.49459038    -0.79700
O1435       O  0.72173363  0.32592413  0.49373849    -0.81700
O1436       O  0.83546549  0.29304097  0.49625693    -0.78400
O1437       O  0.69169622  0.29350844  0.49575961    -0.81100
O1438       O  0.80583974  0.25396553  0.59317151    -0.76800
O1439       O  0.80728128  0.24777731  0.40116885    -0.76800
O1440       O  0.72082518  0.25109177  0.39987370    -0.76500
O1441       O  0.71979635  0.25107744  0.59159717    -0.80000
O1442       O  0.76289109  0.32739484  0.54670336    -0.79400
O1443       O  0.76482165  0.32538869  0.43903336    -0.77700
Eu1444     Eu  0.76300934  0.25254856  0.56585578     2.39800
Eu1445     Eu  0.76378074  0.24984166  0.42627755     2.39600
Eu1446     Eu  0.81350126  0.25093819  0.49718929     2.38400
Eu1447     Eu  0.71307826  0.25085189  0.49597665     2.39900
Eu1448     Eu  0.76354999  0.30411002  0.49384960     2.39800
O1449       O  0.73804716  0.27686583  0.46039926    -0.92100
O1450       O  0.78839974  0.27854886  0.53023770    -0.91000
C1451       C  0.76160727  0.32170288  0.57785291     1.03000
C1452       C  0.76474018  0.31798866  0.40827234     1.01700
C1453       C  0.82904127  0.25431127  0.58212175     1.01100
C1454       C  0.69668322  0.24997353  0.58033081     1.03100
C1455       C  0.69775554  0.25130665  0.41126797     1.02100
C1456       C  0.83023417  0.24754458  0.41312314     1.00900
C1457       C  0.82883845  0.31738807  0.49553663     1.01000
C1458       C  0.69845858  0.31785445  0.49478394     1.03600
H1459       H  0.80027685  0.28737974  0.44726916     0.31000
O1460       O  0.78925266  0.27686779  0.46074501    -1.04300
H1461       H  0.72703422  0.28948870  0.54247169     0.33000
O1462       O  0.73802654  0.27837059  0.52949655    -1.06900
N1463       N  0.55070189  0.49982901  0.50675000    -0.35900
N1464       N  0.01180615  0.04125905  0.50429454    -0.56500
N1465       N  0.97442248  0.50058138  0.51046328    -0.35900
N1466       N  0.01327259  0.45967039  0.50537078    -0.56500
C1467       C  0.56653284  0.02180517  0.49852832     0.27700
C1468       C  0.56484736  0.47874225  0.49782917     0.27700
C1469       C  0.95878204  0.02233186  0.49922696     0.27700
C1470       C  0.96013997  0.47959695  0.50162330     0.27700
C1471       C  0.53373403  0.05635047  0.50714455     0.36300
C1472       C  0.99146491  0.05591991  0.51276870     0.36300
C1473       C  0.53218195  0.44429561  0.50574858     0.36300
C1474       C  0.99256386  0.44435393  0.50914639     0.36300
C1475       C  0.59062536  0.01378972  0.48879247    -0.21200
C1476       C  0.58840075  0.48701536  0.48654389    -0.21200
C1477       C  0.93494376  0.01508156  0.48753253    -0.21200
C1478       C  0.93639690  0.48800017  0.49099041    -0.21200
C1479       C  0.52596995  0.08158257  0.51547268    -0.22200
C1480       C  0.99918039  0.08048679  0.52388997    -0.22200
C1481       C  0.52428513  0.41898892  0.51313668    -0.22200
C1482       C  0.99975721  0.41861748  0.51565569    -0.22200
C1483       C  0.55920191  0.04824029  0.50334196    -0.17600
C1484       C  0.55766305  0.45223114  0.50207855    -0.17600
C1485       C  0.96731940  0.45296265  0.50470614    -0.17600
C1486       C  0.96611979  0.04832346  0.50694459    -0.17600
H1487       H  0.60666825  0.02609082  0.48234536     0.15300
H1488       H  0.60405841  0.47484674  0.47821796     0.15300
H1489       H  0.91911110  0.02785385  0.48160051     0.15300
H1490       H  0.92065662  0.47595833  0.48260602     0.15300
H1491       H  0.53787933  0.09832720  0.52136776     0.13600
H1492       H  0.98721358  0.09672290  0.53160522     0.13600
H1493       H  0.53608567  0.40207177  0.51850113     0.13600
H1494       H  0.98750213  0.40176464  0.51929784     0.13600
H1495       H  0.53371598  0.49921512  0.51990955     0.26900
H1496       H  0.99179805  0.49992614  0.52274241     0.26900
O1497       O  0.98546244  0.45383828  0.90282218    -0.79400
O1498       O  0.98361363  0.45100059  0.09419376    -0.81000
O1499       O  0.52614086  0.42263414  0.99751206    -0.78000
O1500       O  0.94431596  0.42068863  0.99985368    -0.76400
O1501       O  0.91330860  0.45198966  0.00175311    -0.78200
O1502       O  0.55633759  0.45476984  0.99724246    -0.79100
O1503       O  0.98349160  0.42137437  0.05128252    -0.80400
O1504       O  0.98490567  0.42222663  0.94334827    -0.80700
Eu1505     Eu  0.98532552  0.44356432  0.99795200     2.39200
O1506       O  0.96014771  0.46932849  0.03348223    -0.88200
O1507       O  0.50933602  0.47121391  0.96249066    -0.91800
C1508       C  0.98540162  0.42959550  0.91268023     1.02800
C1509       C  0.98288731  0.42721797  0.08242608     1.02700
C1510       C  0.54950091  0.43041663  0.99762811     1.02600
C1511       C  0.92082792  0.42785336  0.00144460     1.00500
H1512       H  0.52094678  0.45870770  0.04558962     0.30200
O1513       O  0.50990797  0.47001073  0.03234955    -1.00600
H1514       H  0.94827389  0.45867752  0.95070202     0.30300
O1515       O  0.95901192  0.46980362  0.96432953    -1.03200
O1516       O  0.98861468  0.04057274  0.09661830    -0.80400
O1517       O  0.98327616  0.04427472  0.90589400    -0.79900
O1518       O  0.55657644  0.49764343  0.05044490    -0.78400
O1519       O  0.91334839  0.49450518  0.05491756    -0.81700
O1520       O  0.91231033  0.49570829  0.94598663    -0.79600
O1521       O  0.55531845  0.49873175  0.94484326    -0.78200
O1522       O  0.52531921  0.07151376  0.00585183    -0.79700
O1523       O  0.94173513  0.07095317  0.00226275    -0.81700
O1524       O  0.55597080  0.03969713  0.00405333    -0.78400
O1525       O  0.91184299  0.03850905  0.00087705    -0.81100
O1526       O  0.52805843  0.49631419  0.09336507    -0.76800
O1527       O  0.52853032  0.99841965  0.90633826    -0.76800
O1528       O  0.94089123  0.99885045  0.90432768    -0.76500
O1529       O  0.94279181  0.49527552  0.09674961    -0.80000
O1530       O  0.98538556  0.07207872  0.05617371    -0.79400
O1531       O  0.98330236  0.07318902  0.94953727    -0.77700
Eu1532     Eu  0.98500944  0.49581794  0.06939695     2.39800
Eu1533     Eu  0.98389924  0.49766667  0.93013747     2.39600
Eu1534     Eu  0.53422619  0.49714532  0.99794641     2.38400
Eu1535     Eu  0.93369718  0.49515696  0.00022272     2.39900
Eu1536     Eu  0.98375626  0.04993549  0.00232769     2.39800
O1537       O  0.95866667  0.02407959  0.96668184    -0.92100
O1538       O  0.50978042  0.02261222  0.03670652    -0.91000
C1539       C  0.98796057  0.06488130  0.08667922     1.03000
C1540       C  0.98316167  0.06793950  0.91817698     1.01700
C1541       C  0.55093880  0.49750787  0.08151958     1.01100
C1542       C  0.91959036  0.49480752  0.08596638     1.03100
C1543       C  0.91775147  0.99816640  0.91552097     1.02100
C1544       C  0.55160804  0.99818675  0.91788542     1.00900
C1545       C  0.54873881  0.06388203  0.00567489     1.01000
C1546       C  0.91848951  0.06287012  0.00143740     1.03600
H1547       H  0.52084692  0.03552903  0.95496805     0.31000
O1548       O  0.51000558  0.02395204  0.96789303    -1.04300
H1549       H  0.94781889  0.03370831  0.05043920     0.33000
O1550       O  0.95861966  0.02291422  0.03641400    -1.06900
N1551       N  0.77268460  0.24571615  0.00326730    -0.35900
N1552       N  0.73381720  0.20578358  0.00970148    -0.56500
N1553       N  0.69553165  0.24645390  0.01282193    -0.35900
N1554       N  0.73457431  0.28652077  0.00313722    -0.56500
C1555       C  0.78604417  0.22403541  0.99474643     0.27700
C1556       C  0.78675751  0.26674365  0.99437868     0.27700
C1557       C  0.68080108  0.22482812  0.00908529     0.27700
C1558       C  0.68112444  0.26749030  0.00458740     0.27700
C1559       C  0.75460001  0.19041580  0.01240016     0.36300
C1560       C  0.71387113  0.19088210  0.01904548     0.36300
C1561       C  0.75546241  0.30157221  0.00784712     0.36300
C1562       C  0.71435609  0.30200086  0.00991204     0.36300
C1563       C  0.80885372  0.23135943  0.98014196    -0.21200
C1564       C  0.80930861  0.25839061  0.97992017    -0.21200
C1565       C  0.65661242  0.23228934  0.99901219    -0.21200
C1566       C  0.65686943  0.25919646  0.99598215    -0.21200
C1567       C  0.74788131  0.16557114  0.02346619    -0.22200
C1568       C  0.72198094  0.16584531  0.02760414    -0.22200
C1569       C  0.74845940  0.32676400  0.01746335    -0.22200
C1570       C  0.72235452  0.32708875  0.01849269    -0.22200
C1571       C  0.77922261  0.19797699  0.00262801    -0.17600
C1572       C  0.78061832  0.29314066  0.00161449    -0.17600
C1573       C  0.68875168  0.29407608  0.00692112    -0.17600
C1574       C  0.68831139  0.19866944  0.01582782    -0.17600
H1575       H  0.82386074  0.21855863  0.97128308     0.15300
H1576       H  0.82468580  0.27051280  0.97073677     0.15300
H1577       H  0.64035600  0.21973136  0.99446429     0.15300
H1578       H  0.64089557  0.27130115  0.98864616     0.15300
H1579       H  0.76025230  0.14884288  0.02741236     0.13600
H1580       H  0.71039883  0.14931893  0.03516884     0.13600
H1581       H  0.76081290  0.34323726  0.02296416     0.13600
H1582       H  0.71060526  0.34380834  0.02502312     0.13600
H1583       H  0.75670969  0.24623596  0.01843687     0.26900
H1584       H  0.71341546  0.24708901  0.02380249     0.26900
C1585       C  0.53568001  0.25104455  0.27346655     0.87200
C1586       C  0.53309829  0.22577724  0.25293111    -0.53100
C1587       C  0.01367854  0.22384185  0.23597747     0.10100
C1588       C  0.99592720  0.24786253  0.23905471     0.21100
C1589       C  0.53170688  0.27349910  0.24834823    -0.53800
C1590       C  0.01244252  0.27153939  0.22925217     0.10200
C1591       C  0.01372498  0.25392695  0.29449720    -0.53300
C1592       C  0.99159089  0.25131338  0.27671874     0.10800
H1593       H  0.54764385  0.21059091  0.25225197     0.15300
H1594       H  0.97812059  0.24625797  0.22431975     0.01000
H1595       H  0.54402070  0.29043824  0.24577256     0.15600
H1596       H  0.01395867  0.25665134  0.32128704     0.15400
C1597       C  0.71307782  0.50063144  0.21862649     0.87200
C1598       C  0.71545400  0.47603593  0.24032398    -0.53100
C1599       C  0.73613721  0.47572701  0.26090737     0.10100
C1600       C  0.75320072  0.50034985  0.25721269     0.21100
C1601       C  0.71496128  0.02098999  0.24264509    -0.53800
C1602       C  0.73608075  0.02241160  0.26245116     0.10200
C1603       C  0.73868966  0.50206478  0.19974667    -0.53300
C1604       C  0.75953269  0.50174890  0.22001556     0.10800
H1605       H  0.70209029  0.45981558  0.23853921     0.15300
H1606       H  0.77035252  0.50041779  0.27331395     0.01000
H1607       H  0.70047886  0.03621206  0.24217191     0.15600
H1608       H  0.74090002  0.50337196  0.17307164     0.15400
C1609       C  0.53870463  0.24506946  0.72777917     0.87200
C1610       C  0.53549358  0.27010785  0.74853501    -0.53100
C1611       C  0.01122418  0.27255859  0.76397221     0.10100
C1612       C  0.99358231  0.24859360  0.75978593     0.21100
C1613       C  0.53537307  0.22237898  0.75290888    -0.53800
C1614       C  0.01005018  0.22472074  0.76934357     0.10200
C1615       C  0.01218322  0.24416405  0.70467623    -0.53300
C1616       C  0.98964838  0.24611538  0.72183054     0.10800
H1617       H  0.54956241  0.28576829  0.74915267     0.15300
H1618       H  0.97586191  0.24988635  0.77461101     0.01000
H1619       H  0.54838755  0.20607296  0.75597734     0.15600
H1620       H  0.01308683  0.24276341  0.67776597     0.15400
C1621       C  0.70981686  0.50081111  0.77325323     0.87200
C1622       C  0.71367085  0.02641031  0.75137291    -0.53100
C1623       C  0.73564113  0.02714376  0.73317419     0.10100
C1624       C  0.75257216  0.49988049  0.73987732     0.21100
C1625       C  0.71157040  0.47859211  0.74711379    -0.53800
C1626       C  0.73382897  0.47798304  0.72971601     0.10200
C1627       C  0.73361089  0.49650929  0.79498946    -0.53300
C1628       C  0.75610435  0.49618918  0.77770939     0.10800
H1629       H  0.69985930  0.04230393  0.75129324     0.15300
H1630       H  0.77056429  0.49966667  0.72546563     0.01000
H1631       H  0.69758952  0.46319173  0.74385349     0.15600
H1632       H  0.73268812  0.49466915  0.82184040     0.15400
C1633       C  0.61654375  0.01072137  0.11956078    -0.27500
C1634       C  0.61751349  0.49998587  0.14340474     0.06100
C1635       C  0.59650047  0.48429515  0.15262729     0.25700
C1636       C  0.57419878  0.48438444  0.13342425    -0.12000
C1637       C  0.57283089  0.49946045  0.10433418    -0.25900
C1638       C  0.59447953  0.01244410  0.10061704     0.36500
C1639       C  0.64188821  0.49960094  0.16230002     0.06100
F1640       F  0.59787979  0.46794977  0.17918517    -0.19700
H1641       H  0.55849622  0.47176406  0.14039653     0.15900
F1642       F  0.59452021  0.02836012  0.07354242    -0.23400
H1643       H  0.63282066  0.02250690  0.11249331     0.17700
C1644       C  0.66541169  0.98953592  0.14860181     0.25700
C1645       C  0.68845254  0.99113881  0.16576670    -0.12000
C1646       C  0.68844582  0.50046061  0.19827201    -0.26000
C1647       C  0.66478542  0.50013364  0.21495275     0.36600
C1648       C  0.64191811  0.50000504  0.19717743    -0.27600
F1649       F  0.66590460  0.98547002  0.11521233    -0.19700
H1650       H  0.70559878  0.98912600  0.15135897     0.15900
F1651       F  0.66374840  0.49999188  0.24868730    -0.23500
H1652       H  0.62419127  0.50058803  0.21083407     0.17800
C1653       C  0.81619979  0.01865168  0.17003733    -0.27500
C1654       C  0.83375301  0.50179958  0.17590828     0.06100
C1655       C  0.82571755  0.48046778  0.19534337     0.25700
C1656       C  0.80182933  0.48101042  0.21061420    -0.12000
C1657       C  0.78576399  0.50281834  0.20693176    -0.25900
C1658       C  0.79282089  0.01922623  0.18638852     0.36500
C1659       C  0.85615239  0.49930516  0.15389560     0.06100
F1660       F  0.84007639  0.45834873  0.19743011    -0.19700
H1661       H  0.79528659  0.46372708  0.22360138     0.15900
F1662       F  0.77654503  0.03942531  0.18047887    -0.23400
H1663       H  0.82089775  0.03439988  0.15301313     0.17700
C1664       C  0.85252203  0.50005928  0.11940856     0.25700
C1665       C  0.87316830  0.49810719  0.09794653    -0.12000
C1666       C  0.89813975  0.49536043  0.11018180    -0.26000
C1667       C  0.90174906  0.49381622  0.14494778     0.36600
C1668       C  0.88081613  0.49570627  0.16657906    -0.27600
F1669       F  0.82886150  0.99881820  0.10425206    -0.19700
H1670       H  0.86997993  0.99736545  0.07055367     0.15900
F1671       F  0.92531468  0.49049811  0.15808437    -0.23500
H1672       H  0.88385649  0.49469874  0.19318910     0.17800
C1673       C  0.51274927  0.32150099  0.16110685    -0.27500
C1674       C  0.99239641  0.33671924  0.16745250     0.06100
C1675       C  0.97668700  0.32948029  0.19410252     0.25700
C1676       C  0.98254428  0.30724300  0.21308511    -0.12000
C1677       C  0.00439548  0.29239689  0.20608084    -0.25900
C1678       C  0.51781880  0.29930701  0.18043390     0.36500
C1679       C  0.98680317  0.36022694  0.14732896     0.06100
F1680       F  0.95586289  0.34402897  0.20182742    -0.17100
H1681       H  0.97061067  0.30219772  0.23407119     0.15900
F1682       F  0.53816405  0.28397991  0.17284048    -0.23400
H1683       H  0.52502437  0.32593861  0.14023299     0.17700
C1684       C  0.48954625  0.38727182  0.16037158     0.25700
C1685       C  0.48734406  0.40889829  0.13893327    -0.12000
C1686       C  0.98194313  0.40453265  0.10566726    -0.26000
C1687       C  0.97652843  0.37893442  0.09361905     0.36600
C1688       C  0.97939142  0.35709829  0.11418282    -0.27600
F1689       F  0.49491696  0.39149295  0.19296177    -0.19700
H1690       H  0.48989624  0.42851159  0.14898112     0.15900
F1691       F  0.96882330  0.37476487  0.06178779    -0.23500
H1692       H  0.97615817  0.33759061  0.10408780     0.17800
C1693       C  0.99923097  0.18064242  0.16116760    -0.27500
C1694       C  0.00103536  0.15513118  0.17469249     0.06100
C1695       C  0.48674539  0.15805337  0.20443192     0.25700
C1696       C  0.48993432  0.18074956  0.22383358    -0.12000
C1697       C  0.00828988  0.20039824  0.21505281    -0.25900
C1698       C  0.00244288  0.20303718  0.18117578     0.36500
C1699       C  0.99715753  0.13136562  0.15309669     0.06100
F1700       F  0.47050828  0.13903561  0.21483386    -0.19700
H1701       H  0.48036274  0.18207664  0.24751780     0.15900
F1702       F  0.00088693  0.22723639  0.16711572    -0.23400
H1703       H  0.99571962  0.18331052  0.13486556     0.17700
C1704       C  0.97743573  0.13060010  0.12935375     0.25700
C1705       C  0.97436334  0.10867433  0.10856527    -0.12000
C1706       C  0.99035845  0.08662461  0.11132373    -0.26000
C1707       C  0.50019309  0.08421549  0.14350669     0.36600
C1708       C  0.50340407  0.10639255  0.16411393    -0.27600
F1709       F  0.96078748  0.15088300  0.12647555    -0.19700
H1710       H  0.95930765  0.10889180  0.09015191     0.15900
F1711       F  0.50853037  0.06047382  0.15433457    -0.23500
H1712       H  0.51195851  0.10401680  0.18843401     0.17800
C1713       C  0.64741467  0.35063277  0.97825622    -0.27500
C1714       C  0.63023993  0.35302470  0.00483369     0.06100
C1715       C  0.63252012  0.33598172  0.03220478     0.25700
C1716       C  0.65170408  0.31696352  0.03282467    -0.12000
C1717       C  0.66877833  0.31463456  0.00621502    -0.25900
C1718       C  0.66649934  0.33152944  0.97883465     0.36500
C1719       C  0.60966397  0.37286696  0.00331461     0.06100
F1720       F  0.61647055  0.33797877  0.05851471    -0.19700
H1721       H  0.65328915  0.30398624  0.05404974     0.15900
F1722       F  0.68240056  0.32913371  0.95242340    -0.23400
H1723       H  0.64571051  0.36326533  0.95672347     0.17700
C1724       C  0.61514142  0.39936485  0.99656583     0.25700
C1725       C  0.59551630  0.41782736  0.99461120    -0.12000
C1726       C  0.56996261  0.41024575  0.99887891    -0.26000
C1727       C  0.56454088  0.38352010  0.00512097     0.36600
C1728       C  0.58425830  0.36516205  0.00754758    -0.27600
F1729       F  0.63952180  0.40748769  0.99233716    -0.19700
H1730       H  0.60042323  0.43813416  0.98966307     0.15900
F1731       F  0.54027464  0.37498448  0.00905657    -0.23500
H1732       H  0.57964004  0.34473460  0.01221343     0.17800
C1733       C  0.84191454  0.32805897  0.02422294    -0.27500
C1734       C  0.84166986  0.34916245  0.00186324     0.06100
C1735       C  0.82156310  0.35156663  0.97901601     0.25700
C1736       C  0.80166996  0.33340740  0.97913557    -0.12000
C1737       C  0.80157854  0.31265224  0.00200962    -0.25900
C1738       C  0.82196658  0.30993777  0.02443042     0.36500
C1739       C  0.86210319  0.36897448  0.00291666     0.06100
F1740       F  0.82143832  0.37122555  0.95624436    -0.19700
H1741       H  0.78636238  0.33540352  0.96127350     0.15900
F1742       F  0.82246165  0.28982573  0.04656917    -0.23400
H1743       H  0.85734626  0.32591954  0.04187988     0.17700
C1744       C  0.85623460  0.39555025  0.00833161     0.25700
C1745       C  0.87547825  0.41439354  0.00843573    -0.12000
C1746       C  0.90096904  0.40716900  0.00282543    -0.26000
C1747       C  0.90684110  0.38031434  0.99807096     0.36600
C1748       C  0.88750699  0.36143607  0.99834205    -0.27600
F1749       F  0.83185266  0.40325001  0.01373644    -0.19700
H1750       H  0.87028106  0.43474570  0.01268017     0.15900
F1751       F  0.93106560  0.37223862  0.99239204    -0.23500
H1752       H  0.89227535  0.34094867  0.99421001     0.17800
C1753       C  0.82002621  0.14076628  0.97515937    -0.27500
C1754       C  0.83718400  0.13906853  0.00185986     0.06100
C1755       C  0.83508612  0.15677817  0.02863665     0.25700
C1756       C  0.81622836  0.17600085  0.02850364    -0.12000
C1757       C  0.79923982  0.17772493  0.00181500    -0.25900
C1758       C  0.80114129  0.16007645  0.97505608     0.36500
C1759       C  0.85784103  0.11950889  0.00121997     0.06100
F1760       F  0.85105545  0.15523069  0.05510140    -0.19700
H1761       H  0.81472716  0.18951272  0.04929998     0.15900
F1762       F  0.78497977  0.16181569  0.94881214    -0.23400
H1763       H  0.82159414  0.12746564  0.95416259     0.17700
C1764       C  0.85267105  0.09271371  0.99621555     0.25700
C1765       C  0.87251591  0.07451357  0.99607935    -0.12000
C1766       C  0.89785146  0.08266899  0.00107301    -0.26000
C1767       C  0.90290302  0.10964100  0.00586429     0.36600
C1768       C  0.88303148  0.12778575  0.00582931    -0.27600
F1769       F  0.82841106  0.08405124  0.99238951    -0.19700
H1770       H  0.86792714  0.05395502  0.99223739     0.15900
F1771       F  0.92690328  0.11861320  0.01098468    -0.23500
H1772       H  0.88732798  0.14845059  0.00937657     0.17800
C1773       C  0.58526611  0.12649763  0.02502202    -0.27500
C1774       C  0.60879698  0.12099108  0.01007819     0.06100
C1775       C  0.61235683  0.09687427  0.99366550     0.25700
C1776       C  0.59266507  0.07854448  0.99232751    -0.12000
C1777       C  0.56898532  0.08399556  0.00702500    -0.25900
C1778       C  0.56538489  0.10824964  0.02336898     0.36500
C1779       C  0.62959355  0.14041593  0.01170335     0.06100
F1780       F  0.63506883  0.09081982  0.97953864    -0.19700
H1781       H  0.59593524  0.06003954  0.97959022     0.15900
F1782       F  0.54299617  0.11403457  0.03851467    -0.23400
H1783       H  0.58228235  0.14503257  0.03780960     0.17700
C1784       C  0.64072465  0.15000988  0.98238167     0.25700
C1785       C  0.66015484  0.16859559  0.98410599    -0.12000
C1786       C  0.66865661  0.17792176  0.01497714    -0.26000
C1787       C  0.65801125  0.16801021  0.04436724     0.36600
C1788       C  0.63842952  0.14944819  0.04267574    -0.27600
F1789       F  0.63233389  0.14194900  0.95209207    -0.19700
H1790       H  0.66832669  0.17615053  0.96132611     0.15900
F1791       F  0.66653734  0.17630993  0.07449177    -0.23500
H1792       H  0.63023060  0.14198019  0.06547875     0.17800
C1793       C  0.80833449  0.47697451  0.83871071    -0.27500
C1794       C  0.82949755  0.99516244  0.82706399     0.06100
C1795       C  0.82718392  0.00944206  0.79721876     0.25700
C1796       C  0.80385439  0.01015241  0.78002708    -0.12000
C1797       C  0.78144637  0.49373049  0.79416204    -0.25900
C1798       C  0.78506024  0.47717378  0.82179396     0.36500
C1799       C  0.85264523  0.99691322  0.84872280     0.06100
F1800       F  0.84696098  0.02388243  0.78560782    -0.19700
H1801       H  0.80246500  0.02199014  0.75783811     0.15900
F1802       F  0.76618963  0.46105152  0.83246025    -0.23400
H1803       H  0.81044715  0.46435778  0.86020108     0.17700
C1804       C  0.84960361  0.49934824  0.88402990     0.25700
C1805       C  0.87109668  0.50015279  0.90436866    -0.12000
C1806       C  0.89583996  0.99834252  0.89163946    -0.26000
C1807       C  0.89882214  0.99470060  0.85702893     0.36600
C1808       C  0.87741278  0.99389626  0.83589638    -0.27600
F1809       F  0.82641955  0.50320148  0.89808004    -0.19700
H1810       H  0.86821313  0.50326793  0.93074855     0.15900
F1811       F  0.92228156  0.99144626  0.84359721    -0.23500
H1812       H  0.88018539  0.99040379  0.80957511     0.17800
C1813       C  0.59313678  0.00551116  0.84044069    -0.27500
C1814       C  0.61593602  0.50672668  0.85107036     0.06100
C1815       C  0.61814161  0.50092039  0.88498436     0.25700
C1816       C  0.59647897  0.49849021  0.90456102    -0.12000
C1817       C  0.57377376  0.99841973  0.89476889    -0.25900
C1818       C  0.57145735  0.00460950  0.86079322     0.36500
C1819       C  0.63898474  0.50690806  0.82981484     0.06100
F1820       F  0.64124921  0.49663074  0.89908301    -0.19700
H1821       H  0.59917813  0.49360949  0.93052378     0.15900
F1822       F  0.54846405  0.01041707  0.84735637    -0.23400
H1823       H  0.59098099  0.01056942  0.81444808     0.17700
C1824       C  0.64187645  0.98641537  0.80292137     0.25700
C1825       C  0.66392024  0.98666765  0.78346359    -0.12000
C1826       C  0.68485282  0.50280566  0.79287671    -0.26000
C1827       C  0.68296218  0.52012420  0.82033485     0.36600
C1828       C  0.66041615  0.52183271  0.83876250    -0.27600
F1829       F  0.62212576  0.97084487  0.79359606    -0.19700
H1830       H  0.66355765  0.97515350  0.76092382     0.15900
F1831       F  0.70297504  0.53539975  0.82948381    -0.23500
H1832       H  0.65969705  0.53480337  0.86016754     0.17800
C1833       C  0.48840407  0.10972208  0.84158537    -0.27500
C1834       C  0.98698998  0.13704448  0.85560102     0.06100
C1835       C  0.98569191  0.13923946  0.89027389     0.25700
C1836       C  0.98379821  0.11676255  0.90993439    -0.12000
C1837       C  0.98335141  0.09132866  0.89566995    -0.25900
C1838       C  0.48588451  0.08730825  0.86169971     0.36500
C1839       C  0.99180041  0.16073982  0.83508516     0.06100
F1840       F  0.98658191  0.16321469  0.90521218    -0.19700
H1841       H  0.98317861  0.11946695  0.93663990     0.15900
F1842       F  0.48562268  0.06323217  0.84704335    -0.23400
H1843       H  0.49033773  0.10725866  0.81494556     0.17700
C1844       C  0.51555692  0.17505041  0.84194642     0.25700
C1845       C  0.52109155  0.19645350  0.82133533    -0.12000
C1846       C  0.00256529  0.20428113  0.79385533    -0.26000
C1847       C  0.97896634  0.19132800  0.79156657     0.36600
C1848       C  0.97382248  0.16944809  0.81172407    -0.27600
F1849       F  0.53104821  0.16999725  0.86819881    -0.19700
H1850       H  0.53752074  0.20859255  0.82677020     0.15900
F1851       F  0.96144296  0.19894630  0.76874716    -0.23500
H1852       H  0.95589744  0.15916845  0.80897509     0.17800
C1853       C  0.50344943  0.31510735  0.84133272    -0.27500
C1854       C  0.99686929  0.34154073  0.82273739     0.06100
C1855       C  0.99278317  0.34191035  0.78815030     0.25700
C1856       C  0.99696156  0.31916413  0.76914232    -0.12000
C1857       C  0.00519698  0.29585992  0.78436841    -0.25900
C1858       C  0.50633002  0.29242805  0.82185104     0.36500
C1859       C  0.99197753  0.36508445  0.84371628     0.06100
F1860       F  0.98429505  0.36403363  0.77291512    -0.19700
H1861       H  0.99384353  0.31969512  0.74251622     0.15900
F1862       F  0.50899236  0.26873474  0.83694793    -0.23400
H1863       H  0.50300153  0.31318489  0.86814255     0.17700
C1864       C  0.47844422  0.36377728  0.87214477     0.25700
C1865       C  0.47466483  0.38587938  0.89216868    -0.12000
C1866       C  0.98627461  0.40833427  0.88743552    -0.26000
C1867       C  0.00074416  0.41084896  0.85819028     0.36600
C1868       C  0.00361096  0.38932827  0.83658274    -0.27600
F1869       F  0.46349446  0.34234976  0.87689791    -0.19700
H1870       H  0.46031879  0.38513944  0.91148017     0.15900
F1871       F  0.01330971  0.43355115  0.85151637    -0.23500
H1872       H  0.01567145  0.39130163  0.81491160     0.17800
C1873       C  0.89663659  0.26096621  0.61537281    -0.27500
C1874       C  0.89416548  0.25298427  0.64852865     0.06100
C1875       C  0.86962885  0.24769436  0.66091254     0.25700
C1876       C  0.84825588  0.24891288  0.63975130    -0.12000
C1877       C  0.85095822  0.25563457  0.60595430    -0.25900
C1878       C  0.87550366  0.26243769  0.59440357     0.36500
C1879       C  0.91756600  0.24956000  0.66912150     0.06100
F1880       F  0.86646924  0.24022948  0.69301484    -0.19700
H1881       H  0.82974281  0.24378893  0.64956415     0.15900
F1882       F  0.87935256  0.27042559  0.56261526    -0.23400
H1883       H  0.91520192  0.26587564  0.60549479     0.17700
C1884       C  0.93780243  0.23400687  0.65732736     0.25700
C1885       C  0.96067535  0.23246410  0.67502350    -0.12000
C1886       C  0.96420937  0.24655060  0.70484865    -0.26000
C1887       C  0.94362560  0.26158730  0.71717020     0.36600
C1888       C  0.92057518  0.26291791  0.69949449    -0.27600
F1889       F  0.93544509  0.22020569  0.62853433    -0.19700
H1890       H  0.97571902  0.22018502  0.66515416     0.15900
F1891       F  0.94600806  0.27621779  0.74525463    -0.23500
H1892       H  0.90537492  0.27523235  0.70891835     0.17800
C1893       C  0.65660138  0.24819624  0.65995882    -0.27500
C1894       C  0.63171903  0.24889643  0.64695341     0.06100
C1895       C  0.62859973  0.24912277  0.61224915     0.25700
C1896       C  0.64973131  0.24933662  0.59124679    -0.12000
C1897       C  0.67473780  0.24906828  0.60400882    -0.25900
C1898       C  0.67790249  0.24802858  0.63881647     0.36500
C1899       C  0.60896847  0.24881599  0.66918606     0.06100
F1900       F  0.60502550  0.24845678  0.59845101    -0.19700
H1901       H  0.64630722  0.24967347  0.56469495     0.15900
F1902       F  0.70145016  0.24670947  0.65253753    -0.23400
H1903       H  0.65959507  0.24797324  0.68659827     0.17700
C1904       C  0.60675333  0.23072681  0.69538593     0.25700
C1905       C  0.58440683  0.22938406  0.71426904    -0.12000
C1906       C  0.56347580  0.24596314  0.70752121    -0.26000
C1907       C  0.56637531  0.26499969  0.68225670     0.36600
C1908       C  0.58870646  0.26625460  0.66337022    -0.27600
F1909       F  0.62589737  0.21365728  0.70218644    -0.19700
H1910       H  0.58407958  0.21534045  0.73425741     0.15900
F1911       F  0.54750098  0.28247955  0.67569639    -0.23500
H1912       H  0.59013829  0.28093546  0.64399343     0.17800
C1913       C  0.74704469  0.14381803  0.66059274    -0.27500
C1914       C  0.75667011  0.11901398  0.65146397     0.06100
C1915       C  0.76924139  0.11634528  0.62088341     0.25700
C1916       C  0.77164144  0.13791748  0.59955113    -0.12000
C1917       C  0.76157926  0.16272636  0.60813002    -0.25900
C1918       C  0.74957411  0.16557273  0.63928755     0.36500
C1919       C  0.75175471  0.09549890  0.67242812     0.06100
F1920       F  0.77826635  0.09256145  0.61099845    -0.19700
H1921       H  0.78104013  0.13502942  0.57585498     0.15900
F1922       F  0.73911482  0.18891141  0.64844024    -0.23400
H1923       H  0.73705058  0.14616454  0.68395638     0.17700
C1924       C  0.77092139  0.08428637  0.69228836     0.25700
C1925       C  0.76588765  0.06168742  0.71133531    -0.12000
C1926       C  0.74168465  0.04990564  0.71092614    -0.26000
C1927       C  0.72272450  0.06098887  0.69040396     0.36600
C1928       C  0.72774402  0.08354883  0.67156255    -0.27600
F1929       F  0.79433120  0.09547916  0.69369391    -0.19700
H1930       H  0.78071425  0.05384403  0.72706663     0.15900
F1931       F  0.69939274  0.04971489  0.68801985    -0.23500
H1932       H  0.71287938  0.09161844  0.65594942     0.17800
C1933       C  0.76662311  0.42060964  0.68649761    -0.27500
C1934       C  0.74745102  0.41181595  0.66483417     0.06100
C1935       C  0.72432104  0.42567864  0.66349302     0.25700
C1936       C  0.72040563  0.44764068  0.68384976    -0.12000
C1937       C  0.73948272  0.45639117  0.70576584    -0.25900
C1938       C  0.76283430  0.44286723  0.70657095     0.36500
C1939       C  0.75185741  0.38869929  0.64297803     0.06100
F1940       F  0.70527015  0.41760229  0.64305379    -0.19700
H1941       H  0.70227819  0.45773409  0.68272019     0.15900
F1942       F  0.78161610  0.45042796  0.72767852    -0.23400
H1943       H  0.78462139  0.41028279  0.68769751     0.17700
C1944       C  0.74940762  0.39118145  0.60841202     0.25700
C1945       C  0.75303858  0.36943966  0.58774613    -0.12000
C1946       C  0.75911422  0.34452942  0.60092958    -0.26000
C1947       C  0.76198968  0.34212777  0.63563054     0.36600
C1948       C  0.75848561  0.36410632  0.65639357    -0.27600
F1949       F  0.74375547  0.41479279  0.59453252    -0.19700
H1950       H  0.75069149  0.37219338  0.56122317     0.15900
F1951       F  0.76828048  0.31870614  0.64950749    -0.23500
H1952       H  0.76057792  0.36186808  0.68303288     0.17800
C1953       C  0.89325637  0.15214849  0.49644345    -0.27500
C1954       C  0.88684612  0.12563901  0.50047366     0.06100
C1955       C  0.86126194  0.11836397  0.50387880     0.25700
C1956       C  0.84228631  0.13751636  0.50316368    -0.12000
C1957       C  0.84856771  0.16423696  0.49930651    -0.25900
C1958       C  0.87439964  0.17138633  0.49606896     0.36500
C1959       C  0.90709744  0.10580656  0.50199877     0.06100
F1960       F  0.85464789  0.09271118  0.50742768    -0.19700
H1961       H  0.82267233  0.13136803  0.50579774     0.15900
F1962       F  0.88162117  0.19686814  0.49250535    -0.23400
H1963       H  0.91299540  0.15797530  0.49408487     0.17700
C1964       C  0.92415042  0.10273333  0.47540970     0.25700
C1965       C  0.94375267  0.08436121  0.47755892    -0.12000
C1966       C  0.94640257  0.06887991  0.50611145    -0.26000
C1967       C  0.92932559  0.07180953  0.53261903     0.36600
C1968       C  0.90978704  0.09027937  0.53056300    -0.27600
F1969       F  0.92140493  0.11700599  0.44714684    -0.19700
H1970       H  0.95662334  0.08181099  0.45677053     0.15900
F1971       F  0.93153201  0.05671620  0.56025436    -0.23500
H1972       H  0.89682249  0.09261416  0.55128980     0.17800
C1973       C  0.63484314  0.14975567  0.49116501    -0.27500
C1974       C  0.63976966  0.12499852  0.50497410     0.06100
C1975       C  0.66414044  0.11950131  0.51753998     0.25700
C1976       C  0.68333267  0.13854236  0.51582051    -0.12000
C1977       C  0.67841559  0.16341899  0.50190325    -0.25900
C1978       C  0.65383396  0.16885887  0.48975829     0.36500
C1979       C  0.61946389  0.10493078  0.50490585     0.06100
F1980       F  0.66955459  0.09552790  0.53056544    -0.19700
H1981       H  0.70202139  0.13385171  0.52548894     0.15900
F1982       F  0.64821599  0.19239547  0.47568478    -0.23400
H1983       H  0.61615106  0.15428556  0.48136412     0.17700
C1984       C  0.61129087  0.09305733  0.53457856     0.25700
C1985       C  0.59129469  0.07495401  0.53398985    -0.12000
C1986       C  0.57944046  0.06838100  0.50387082    -0.26000
C1987       C  0.58781123  0.07986348  0.47417430     0.36600
C1988       C  0.60756231  0.09818675  0.47477868    -0.27600
F1989       F  0.62228111  0.09932730  0.56410415    -0.19700
H1990       H  0.58509132  0.06592193  0.55696165     0.15900
F1991       F  0.57720636  0.07290798  0.44464087    -0.23500
H1992       H  0.61380142  0.10696231  0.45166157     0.17800
C1993       C  0.61097403  0.40723872  0.52961512    -0.27500
C1994       C  0.61716394  0.39440095  0.49969715     0.06100
C1995       C  0.60309756  0.40018322  0.47079852     0.25700
C1996       C  0.58354767  0.41878261  0.47182747    -0.12000
C1997       C  0.57776133  0.43184723  0.50157749    -0.25900
C1998       C  0.59141459  0.42586169  0.53057922     0.36500
C1999       C  0.63815128  0.37494993  0.49869842     0.06100
F2000       F  0.60871961  0.38839176  0.44137667    -0.19700
H2001       H  0.57310798  0.42330848  0.44932398     0.15900
F2002       F  0.58574954  0.43801668  0.55974616    -0.23400
H2003       H  0.62121570  0.40271839  0.55227090     0.17700
C2004       C  0.66240813  0.38109185  0.51137736     0.25700
C2005       C  0.68214713  0.36267392  0.50944978    -0.12000
C2006       C  0.67791522  0.33771288  0.49538014    -0.26000
C2007       C  0.65357017  0.33157644  0.48294676     0.36600
C2008       C  0.63398426  0.35004870  0.48459318    -0.27600
F2009       F  0.66713386  0.40501983  0.52513488    -0.19700
H2010       H  0.70063782  0.36778163  0.51947360     0.15900
F2011       F  0.64872445  0.30784561  0.46870321    -0.23500
H2012       H  0.61539767  0.34480301  0.47501373     0.17800
C2013       C  0.89424498  0.34893886  0.50012584    -0.27500
C2014       C  0.88794027  0.37565419  0.49971793     0.06100
C2015       C  0.86242551  0.38331644  0.49712555     0.25700
C2016       C  0.84331908  0.36430726  0.49531671    -0.12000
C2017       C  0.84939626  0.33734554  0.49622467    -0.25900
C2018       C  0.87524911  0.32985627  0.49843370     0.36500
C2019       C  0.90819647  0.39544418  0.50113680     0.06100
F2020       F  0.85609662  0.40918466  0.49576377    -0.19700
H2021       H  0.82375374  0.37076710  0.49330480     0.15900
F2022       F  0.88237505  0.30418865  0.49907076    -0.23400
H2023       H  0.91395942  0.34288241  0.50195364     0.17700
C2024       C  0.91030627  0.41245652  0.52856200     0.25700
C2025       C  0.92977658  0.43102822  0.52963712    -0.12000
C2026       C  0.94702765  0.43298807  0.50322874    -0.26000
C2027       C  0.94465396  0.41632008  0.47552059     0.36600
C2028       C  0.92548110  0.39738838  0.47473631    -0.27600
F2029       F  0.89375565  0.41086801  0.55436357    -0.19700
H2030       H  0.93143253  0.44396779  0.55098966     0.15900
F2031       F  0.96061583  0.41868017  0.44918160    -0.23500
H2032       H  0.92380968  0.38450196  0.45333641     0.17800
C2033       C  0.65602148  0.24743434  0.33328938    -0.27500
C2034       C  0.63159578  0.24963065  0.34743328     0.06100
C2035       C  0.62943997  0.25338125  0.38184518     0.25700
C2036       C  0.65104235  0.25447090  0.40172373    -0.12000
C2037       C  0.67560456  0.25163921  0.38811253    -0.25900
C2038       C  0.67791479  0.24838918  0.35341286     0.36500
C2039       C  0.60816166  0.24871715  0.32681550     0.06100
F2040       F  0.60631915  0.25648300  0.39635960    -0.19700
H2041       H  0.64828512  0.25742765  0.42815452     0.15900
F2042       F  0.70110028  0.24570739  0.33898741    -0.23400
H2043       H  0.65811055  0.24457307  0.30673386     0.17700
C2044       C  0.60509153  0.26549235  0.29951315     0.25700
C2045       C  0.58185366  0.26657711  0.28263644    -0.12000
C2046       C  0.56084018  0.25119328  0.29277678    -0.26000
C2047       C  0.56453514  0.23347019  0.31931065     0.36600
C2048       C  0.58782809  0.23238310  0.33607868    -0.27600
F2049       F  0.62433882  0.28145116  0.28963955    -0.19700
H2050       H  0.58100895  0.27920706  0.26120618     0.15900
F2051       F  0.54563744  0.21700615  0.32901910    -0.23500
H2052       H  0.58994499  0.21884192  0.35665064     0.17800
C2053       C  0.89866749  0.24612653  0.38237103    -0.27500
C2054       C  0.89576478  0.24775231  0.34784169     0.06100
C2055       C  0.87101550  0.24744600  0.33436793     0.25700
C2056       C  0.84965421  0.24690803  0.35544359    -0.12000
C2057       C  0.85261404  0.24641557  0.39025353    -0.25900
C2058       C  0.87762517  0.24550208  0.40334585     0.36500
C2059       C  0.91895139  0.25035349  0.32686849     0.06100
F2060       F  0.86746013  0.24862161  0.30098680    -0.19700
H2061       H  0.83083435  0.24736409  0.34450758     0.15900
F2062       F  0.88213411  0.24437456  0.43657428    -0.23400
H2063       H  0.91750629  0.24559073  0.39329995     0.17700
C2064       C  0.93750554  0.26934530  0.33486233     0.25700
C2065       C  0.96070006  0.26994686  0.31791032    -0.12000
C2066       C  0.96600320  0.25166845  0.29261651    -0.26000
C2067       C  0.94716811  0.23318909  0.28381143     0.36600
C2068       C  0.92383774  0.23261947  0.30078251    -0.27600
F2069       F  0.93331926  0.28715421  0.35949516    -0.19700
H2070       H  0.97470186  0.28460510  0.32483237     0.15900
F2071       F  0.95186780  0.21462059  0.26029255    -0.23500
H2072       H  0.91004360  0.21756847  0.29454466     0.17800
C2073       C  0.74801729  0.35878838  0.33199454    -0.27500
C2074       C  0.75914414  0.38314466  0.33999779     0.06100
C2075       C  0.77434616  0.38503442  0.36865821     0.25700
C2076       C  0.77677847  0.36348673  0.39009156    -0.12000
C2077       C  0.76478677  0.33933744  0.38290851    -0.25900
C2078       C  0.75122881  0.33690432  0.35282277     0.36500
C2079       C  0.75347542  0.40687661  0.31974750     0.06100
F2080       F  0.78579354  0.40811571  0.37681002    -0.19700
H2081       H  0.78770163  0.36584156  0.41276101     0.15900
F2082       F  0.73995559  0.31382428  0.34435857    -0.23400
H2083       H  0.73649589  0.35684935  0.30977715     0.17700
C2084       C  0.77301597  0.42171574  0.30509381     0.25700
C2085       C  0.76732015  0.44455915  0.28715140    -0.12000
C2086       C  0.74203321  0.45279448  0.28275284    -0.26000
C2087       C  0.72249058  0.43814406  0.29806999     0.36600
C2088       C  0.72823061  0.41540608  0.31617742    -0.27600
F2089       F  0.79758117  0.41374783  0.30740256    -0.19700
H2090       H  0.78278286  0.45543957  0.27617163     0.15900
F2091       F  0.69787683  0.44612286  0.29641518    -0.23500
H2092       H  0.71293213  0.40459724  0.32790900     0.17800
C2093       C  0.74191953  0.11510603  0.37577163    -0.27500
C2094       C  0.75326430  0.11534171  0.34422626     0.06100
C2095       C  0.76575119  0.13842530  0.33371638     0.25700
C2096       C  0.76765662  0.16033514  0.35509082    -0.12000
C2097       C  0.75709308  0.15961606  0.38724338    -0.25900
C2098       C  0.74358477  0.13693016  0.39690259     0.36500
C2099       C  0.75103944  0.09168287  0.32236292     0.06100
F2100       F  0.77671918  0.13950461  0.30319871    -0.19700
H2101       H  0.77789884  0.17759799  0.34681025     0.15900
F2102       F  0.73139711  0.13601396  0.42662512    -0.23400
H2103       H  0.73139509  0.09799076  0.38395798     0.17700
C2104       C  0.75752765  0.06641471  0.33405362     0.25700
C2105       C  0.75316855  0.04402204  0.31430934    -0.12000
C2106       C  0.74220029  0.04634745  0.28260498    -0.26000
C2107       C  0.73689207  0.07178559  0.27035863     0.36600
C2108       C  0.74110042  0.09406862  0.29014417    -0.27600
F2109       F  0.76813342  0.06340259  0.36459051    -0.19700
H2110       H  0.75778531  0.02480407  0.32418105     0.15900
F2111       F  0.72798359  0.07527872  0.23899157    -0.23500
H2112       H  0.73606626  0.11324344  0.28047644     0.17800
O2113       O  0.76143911  0.70450091  0.40306596    -0.79400
O2114       O  0.76092138  0.70591196  0.59531081    -0.81000
O2115       O  0.80415604  0.67458390  0.49834732    -0.78000
O2116       O  0.72104553  0.67461008  0.50248703    -0.76400
O2117       O  0.69093344  0.70690858  0.50044711    -0.78200
O2118       O  0.83419153  0.70687255  0.49873269    -0.79100
O2119       O  0.76281850  0.67472014  0.55401873    -0.80400
O2120       O  0.76132510  0.67437562  0.44531861    -0.80700
Eu2121     Eu  0.76258079  0.69637017  0.49958882     2.39200
O2122       O  0.73753191  0.72342940  0.53365441    -0.88200
O2123       O  0.78784203  0.72245087  0.46468515    -0.91800
C2124       C  0.76073655  0.68061521  0.41424013     1.02800
C2125       C  0.76156050  0.68176932  0.58483796     1.02700
C2126       C  0.82744744  0.68254661  0.49825241     1.02600
C2127       C  0.69777111  0.68260859  0.50217800     1.00500
H2128       H  0.79867824  0.71223265  0.54747703     0.30200
O2129       O  0.78791002  0.72311924  0.53407429    -1.00600
H2130       H  0.72600352  0.71142518  0.45125598     0.30300
O2131       O  0.73705079  0.72237334  0.46442289    -1.03200
O2132       O  0.76205278  0.79478690  0.59504667    -0.80400
O2133       O  0.76291846  0.79301270  0.40328782    -0.79900
O2134       O  0.83426889  0.74965120  0.55217795    -0.78400
O2135       O  0.69036932  0.74809465  0.55158192    -0.81700
O2136       O  0.69062662  0.75082317  0.44580658    -0.79600
O2137       O  0.83415377  0.74711279  0.44516625    -0.78200
O2138       O  0.80459193  0.82370769  0.50099868    -0.79700
O2139       O  0.72140982  0.82437512  0.49863831    -0.81700
O2140       O  0.83490485  0.79167220  0.50014629    -0.78400
O2141       O  0.69125381  0.79219013  0.49929979    -0.81100
O2142       O  0.80587459  0.75047034  0.59505319    -0.76800
O2143       O  0.80538542  0.74647782  0.40260971    -0.76800
O2144       O  0.71957533  0.75058868  0.40348488    -0.76500
O2145       O  0.71905757  0.74863851  0.59423337    -0.80000
O2146       O  0.76301366  0.82498443  0.55299184    -0.79400
O2147       O  0.76384891  0.82417355  0.44464890    -0.77700
Eu2148     Eu  0.76253464  0.75010198  0.56896047     2.39800
Eu2149     Eu  0.76262731  0.74882680  0.42942406     2.39600
Eu2150     Eu  0.81282572  0.74934641  0.49886914     2.38400
Eu2151     Eu  0.71245665  0.74952028  0.49888897     2.39900
Eu2152     Eu  0.76289064  0.80243402  0.49890888     2.39800
O2153       O  0.73756099  0.77581362  0.46433830    -0.92100
O2154       O  0.78802426  0.77609888  0.53356155    -0.91000
C2155       C  0.76246639  0.81879318  0.58412014     1.03000
C2156       C  0.76348677  0.81713596  0.41378838     1.01700
C2157       C  0.82890511  0.75028018  0.58333885     1.01100
C2158       C  0.69599541  0.74778504  0.58269552     1.03100
C2159       C  0.69648219  0.75123138  0.41476016     1.02100
C2160       C  0.82845115  0.74581186  0.41405583     1.00900
C2161       C  0.82793748  0.81596128  0.50133180     1.01000
C2162       C  0.69809737  0.81650474  0.49917894     1.03600
H2163       H  0.79913137  0.78657777  0.45066448     0.31000
O2164       O  0.78817747  0.77587936  0.46398345    -1.04300
H2165       H  0.72631183  0.78745698  0.54698513     0.33000
O2166       O  0.73718663  0.77645492  0.53368535    -1.06900
N2167       N  0.55205510  0.00051518  0.50529101    -0.35900
N2168       N  0.01336385  0.54056827  0.50972257    -0.56500
N2169       N  0.97308747  0.00064056  0.50430111    -0.35900
N2170       N  0.01163097  0.96046998  0.49500461    -0.56500
C2171       C  0.56495278  0.52149118  0.50113758     0.27700
C2172       C  0.56661840  0.97905544  0.49968182     0.27700
C2173       C  0.96011447  0.52227954  0.50509692     0.27700
C2174       C  0.95864259  0.97969389  0.49586820     0.27700
C2175       C  0.53293499  0.55534832  0.51699643     0.36300
C2176       C  0.99313178  0.55599588  0.51672002     0.36300
C2177       C  0.53374319  0.94483928  0.50930751     0.36300
C2178       C  0.99143125  0.94510207  0.50236280     0.36300
C2179       C  0.58846481  0.51402018  0.48855696    -0.21200
C2180       C  0.59064767  0.98679442  0.48938077    -0.21200
C2181       C  0.93637792  0.51493403  0.49315483    -0.21200
C2182       C  0.93485596  0.98811346  0.48543626    -0.21200
C2183       C  0.52568912  0.58011294  0.52804932    -0.22200
C2184       C  0.00121002  0.58086150  0.52618774    -0.22200
C2185       C  0.52585662  0.92006534  0.51923231    -0.22200
C2186       C  0.99952729  0.92012660  0.51112814    -0.22200
C2187       C  0.55809012  0.54754657  0.50969803    -0.17600
C2188       C  0.55930963  0.95277312  0.50569822    -0.17600
C2189       C  0.96577667  0.95316659  0.49989241    -0.17600
C2190       C  0.96755864  0.54848755  0.51171598    -0.17600
H2191       H  0.60429837  0.52662471  0.48218778     0.15300
H2192       H  0.60668245  0.97431574  0.48333852     0.15300
H2193       H  0.92062662  0.52762596  0.48662793     0.15300
H2194       H  0.91898660  0.97606062  0.47750861     0.15300
H2195       H  0.53793598  0.59647804  0.53444179     0.13600
H2196       H  0.98947827  0.59759280  0.53272956     0.13600
H2197       H  0.53766547  0.90369591  0.52680630     0.13600
H2198       H  0.98786480  0.90352484  0.51821251     0.13600
H2199       H  0.53441784  0.00066346  0.51690303     0.26900
H2200       H  0.99046481  0.99994283  0.51661762     0.26900
O2201       O  0.98539358  0.95504758  0.90180678    -0.79400
O2202       O  0.98345834  0.95104021  0.09442142    -0.81000
O2203       O  0.52669399  0.92175557  0.99915225    -0.78000
O2204       O  0.94360606  0.92231820  0.99711950    -0.76400
O2205       O  0.91276502  0.95374338  0.99985164    -0.78200
O2206       O  0.55669523  0.95408439  0.99997697    -0.79100
O2207       O  0.98306723  0.92173179  0.05121713    -0.80400
O2208       O  0.98505495  0.92383422  0.94277344    -0.80700
Eu2209     Eu  0.98501527  0.94442530  0.99775032     2.39200
O2210       O  0.95998805  0.97005114  0.03350547    -0.88200
O2211       O  0.51044255  0.97083504  0.96618605    -0.91800
C2212       C  0.98532035  0.93081785  0.91196097     1.02800
C2213       C  0.98263004  0.92729743  0.08251903     1.02700
C2214       C  0.54998652  0.92968372  0.99911812     1.02600
C2215       C  0.92013273  0.92958020  0.99841609     1.00500
H2216       H  0.52159337  0.95816253  0.04900748     0.30200
O2217       O  0.51056693  0.96949390  0.03576580    -1.00600
H2218       H  0.94845035  0.96036278  0.95051173     0.30300
O2219       O  0.95924773  0.97129353  0.96430700    -1.03200
O2220       O  0.98682776  0.54022889  0.09662681    -0.80400
O2221       O  0.98269480  0.54295968  0.90628813    -0.79900
O2222       O  0.55682013  0.99741423  0.05500427    -0.78400
O2223       O  0.91395804  0.99418101  0.05501932    -0.81700
O2224       O  0.91195778  0.99726697  0.94669398    -0.79600
O2225       O  0.55725903  0.99777208  0.94899861    -0.78200
O2226       O  0.52470906  0.57192299  0.00175162    -0.79700
O2227       O  0.94060525  0.56914333  0.99944411    -0.81700
O2228       O  0.55520368  0.53995021  0.99932842    -0.78400
O2229       O  0.91076740  0.53663441  0.99837876    -0.81100
O2230       O  0.52800029  0.99560633  0.09755340    -0.76800
O2231       O  0.52655144  0.50038866  0.90234003    -0.76800
O2232       O  0.94100897  0.49748239  0.90340035    -0.76500
O2233       O  0.94301363  0.99491090  0.09727485    -0.80000
O2234       O  0.98367352  0.57134378  0.05578888    -0.79400
O2235       O  0.98204050  0.57272084  0.94909819    -0.77700
Eu2236     Eu  0.98509834  0.99596678  0.06977489     2.39800
Eu2237     Eu  0.98419468  0.99894333  0.93000672     2.39600
Eu2238     Eu  0.53516464  0.99682666  0.00176605     2.38400
Eu2239     Eu  0.93399911  0.99651284  0.00037039     2.39900
Eu2240     Eu  0.98316389  0.54925289  0.00166207     2.39800
O2241       O  0.95834322  0.52268494  0.96661182    -0.92100
O2242       O  0.50953025  0.52324539  0.03336700    -0.91000
C2243       C  0.98571034  0.56445787  0.08652282     1.03000
C2244       C  0.98204061  0.56680306  0.91793127     1.01700
C2245       C  0.55097289  0.99689158  0.08603770     1.01100
C2246       C  0.91993551  0.99403458  0.08612613     1.03100
C2247       C  0.91792783  0.49676328  0.91475959     1.02100
C2248       C  0.54963309  0.50017899  0.91384629     1.00900
C2249       C  0.54805216  0.56415670  0.00087446     1.01000
C2250       C  0.91738589  0.56100042  0.99801184     1.03600
H2251       H  0.51954544  0.53573492  0.95149382     0.31000
O2252       O  0.50877582  0.52418757  0.96455712    -1.04300
H2253       H  0.94728856  0.53299249  0.04948185     0.33000
O2254       O  0.95821667  0.52214022  0.03571516    -1.06900
N2255       N  0.77373330  0.74443917  0.00449665    -0.35900
N2256       N  0.73337400  0.70518657  0.00562037    -0.56500
N2257       N  0.69601735  0.74674884  0.00497450    -0.35900
N2258       N  0.73630357  0.78603927  0.00017411    -0.56500
C2259       C  0.78688878  0.72234163  0.99721885     0.27700
C2260       C  0.78856798  0.76503180  0.99585976     0.27700
C2261       C  0.68065066  0.72564978  0.00064008     0.27700
C2262       C  0.68216230  0.76843071  0.99796963     0.27700
C2263       C  0.75355541  0.68935470  0.01069118     0.36300
C2264       C  0.71252722  0.69048976  0.01157877     0.36300
C2265       C  0.75733547  0.80071858  0.00556126     0.36300
C2266       C  0.71623789  0.80210643  0.00540094     0.36300
C2267       C  0.81040186  0.72896763  0.98402083    -0.21200
C2268       C  0.81147351  0.75595840  0.98321992    -0.21200
C2269       C  0.65657439  0.73409634  0.99144422    -0.21200
C2270       C  0.65758712  0.76102711  0.98946268    -0.21200
C2271       C  0.74557141  0.66443247  0.01987436    -0.22200
C2272       C  0.71951220  0.66509322  0.02021753    -0.22200
C2273       C  0.75063671  0.82624303  0.01397250    -0.22200
C2274       C  0.72456970  0.82713572  0.01382533    -0.22200
C2275       C  0.77890355  0.69640830  0.00399503    -0.17600
C2276       C  0.78246553  0.79177127  0.00082032    -0.17600
C2277       C  0.69050050  0.79479045  0.00139388    -0.17600
C2278       C  0.68735549  0.69910434  0.00648080    -0.17600
H2279       H  0.82533795  0.71572856  0.97603018     0.15300
H2280       H  0.82734343  0.76758074  0.97444989     0.15300
H2281       H  0.63984714  0.72219859  0.98699040     0.15300
H2282       H  0.64181761  0.77370813  0.98299098     0.15300
H2283       H  0.75727646  0.64739276  0.02497655     0.13600
H2284       H  0.70719658  0.64860539  0.02562452     0.13600
H2285       H  0.76319845  0.84254556  0.01951274     0.13600
H2286       H  0.71307823  0.84425857  0.01936514     0.13600
H2287       H  0.75699771  0.74544481  0.01817150     0.26900
H2288       H  0.71395665  0.74663747  0.01567244     0.26900
C2289       C  0.53675325  0.74875948  0.27298837     0.87200
C2290       C  0.53407249  0.72382264  0.25174165    -0.53100
C2291       C  0.01224757  0.72367328  0.23476031     0.10100
C2292       C  0.99378817  0.74681509  0.24044282     0.21100
C2293       C  0.53220771  0.77162017  0.24857870    -0.53800
C2294       C  0.00926288  0.77167432  0.23232737     0.10200
C2295       C  0.01257737  0.75023829  0.29569896    -0.53300
C2296       C  0.99011711  0.74789354  0.27846918     0.10800
H2297       H  0.54866202  0.70872030  0.25029852     0.15300
H2298       H  0.97585415  0.74535387  0.22597767     0.01000
H2299       H  0.54445514  0.78857990  0.24577504     0.15600
H2300       H  0.01335333  0.75144143  0.32263615     0.15400
C2301       C  0.71360335  0.99641827  0.22043010     0.87200
C2302       C  0.71598633  0.97309697  0.24400709    -0.53100
C2303       C  0.73655873  0.97378721  0.26467813     0.10100
C2304       C  0.75371352  0.99817844  0.25893975     0.21100
C2305       C  0.71435697  0.52384505  0.24300406    -0.53800
C2306       C  0.73555457  0.52422564  0.26273760     0.10200
C2307       C  0.73906006  0.99672449  0.20140607    -0.53300
C2308       C  0.75996147  0.99749624  0.22157250     0.10800
H2309       H  0.70281079  0.95669482  0.24290322     0.15300
H2310       H  0.77087527  0.99912025  0.27497318     0.01000
H2311       H  0.69993480  0.53912859  0.24375957     0.15600
H2312       H  0.74107440  0.99678743  0.17463383     0.15400
C2313       C  0.53695086  0.74453151  0.72703167     0.87200
C2314       C  0.53386583  0.77007745  0.74706545    -0.53100
C2315       C  0.01080287  0.77071462  0.76644216     0.10100
C2316       C  0.99328994  0.74681621  0.76077850     0.21100
C2317       C  0.53334809  0.72243336  0.75281466    -0.53800
C2318       C  0.00987566  0.72275539  0.76903746     0.10200
C2319       C  0.01201494  0.74408951  0.70558107    -0.53300
C2320       C  0.98955653  0.74538808  0.72277436     0.10800
H2321       H  0.54818344  0.78548673  0.74750122     0.15300
H2322       H  0.97532405  0.74750524  0.77523239     0.01000
H2323       H  0.54606633  0.70596973  0.75646827     0.15600
H2324       H  0.01277142  0.74305128  0.67862338     0.15400
C2325       C  0.71011654  0.00151607  0.77219915     0.87200
C2326       C  0.71533439  0.52612619  0.75397888    -0.53100
C2327       C  0.73751004  0.52576983  0.73642968     0.10100
C2328       C  0.75258424  0.00236277  0.73799381     0.21100
C2329       C  0.71301711  0.97859467  0.74731313    -0.53800
C2330       C  0.73507257  0.97882126  0.72955756     0.10200
C2331       C  0.73441304  0.99969270  0.79351425    -0.53300
C2332       C  0.75678330  0.99997628  0.77596583     0.10800
H2333       H  0.70251761  0.54289864  0.75389334     0.15300
H2334       H  0.77037305  0.00253072  0.72315595     0.01000
H2335       H  0.70005980  0.96210918  0.74536418     0.15600
H2336       H  0.73377652  0.99833607  0.82040213     0.15400
C2337       C  0.61539614  0.51600081  0.11517847    -0.27500
C2338       C  0.61784877  0.99387592  0.14702997     0.06100
C2339       C  0.59595661  0.97966082  0.15635167     0.25700
C2340       C  0.57349159  0.98180936  0.13765771    -0.12000
C2341       C  0.57278113  0.99770793  0.10917968    -0.25900
C2342       C  0.59367403  0.51532143  0.09544020     0.36500
C2343       C  0.64214567  0.99193684  0.16563791     0.06100
F2344       F  0.59662092  0.96279932  0.18244796    -0.19700
H2345       H  0.55711717  0.97006310  0.14442240     0.15900
F2346       F  0.59314693  0.53017093  0.06740780    -0.23400
H2347       H  0.63077740  0.52896082  0.10802990     0.17700
C2348       C  0.66541017  0.49938432  0.14553286     0.25700
C2349       C  0.68825207  0.49999719  0.16324501    -0.12000
C2350       C  0.68891848  0.99477067  0.20050064    -0.26000
C2351       C  0.66544623  0.99567916  0.21759851     0.36600
C2352       C  0.64243205  0.99451431  0.20031298    -0.27600
F2353       F  0.66648716  0.49792337  0.11183859    -0.19700
H2354       H  0.70549543  0.49961972  0.14886125     0.15900
F2355       F  0.66476232  0.99799313  0.25123508    -0.23500
H2356       H  0.62481192  0.99642903  0.21403105     0.17800
C2357       C  0.81812847  0.52415854  0.17348907    -0.27500
C2358       C  0.83291949  0.99736006  0.17427495     0.06100
C2359       C  0.82648131  0.97727947  0.19671124     0.25700
C2360       C  0.80315412  0.97806763  0.21350430    -0.12000
C2361       C  0.78597243  0.99869159  0.20785520    -0.25900
C2362       C  0.79425407  0.52468625  0.18877761     0.36500
C2363       C  0.85551478  0.99512431  0.15251271     0.06100
F2364       F  0.84186843  0.95606379  0.20056297    -0.19700
H2365       H  0.79789169  0.96180543  0.22934361     0.15900
F2366       F  0.77916642  0.54615497  0.18499170    -0.23400
H2367       H  0.82401554  0.54074879  0.15849205     0.17700
C2368       C  0.85238398  0.99664201  0.11794873     0.25700
C2369       C  0.87338107  0.99578634  0.09703500    -0.12000
C2370       C  0.89821779  0.99341107  0.10983298    -0.26000
C2371       C  0.90136087  0.99096829  0.14456000     0.36600
C2372       C  0.88008289  0.99180864  0.16566947    -0.27600
F2373       F  0.82878988  0.50236712  0.10639115    -0.19700
H2374       H  0.86941561  0.49905826  0.07149767     0.15900
F2375       F  0.92479346  0.98786242  0.15817193    -0.23500
H2376       H  0.88280538  0.99037896  0.19230404     0.17800
C2377       C  0.51155679  0.81915931  0.16151725    -0.27500
C2378       C  0.98963584  0.83772216  0.17096056     0.06100
C2379       C  0.97277377  0.82926680  0.19591008     0.25700
C2380       C  0.97850913  0.80685800  0.21492481    -0.12000
C2381       C  0.00118352  0.79287719  0.20942050    -0.25900
C2382       C  0.51706849  0.79712543  0.18085725     0.36500
C2383       C  0.98412687  0.86075326  0.14952663     0.06100
F2384       F  0.95074178  0.84244261  0.20156193    -0.17100
H2385       H  0.96567966  0.80087823  0.23456660     0.15900
F2386       F  0.53746329  0.78196588  0.17296156    -0.23400
H2387       H  0.52359504  0.82365248  0.14042891     0.17700
C2388       C  0.48838176  0.88504948  0.16293465     0.25700
C2389       C  0.48696017  0.90715857  0.14211061    -0.12000
C2390       C  0.98155081  0.90445260  0.10588269    -0.26000
C2391       C  0.98136909  0.87834700  0.09350220     0.36600
C2392       C  0.98288881  0.85699423  0.11509575    -0.27600
F2393       F  0.49270991  0.88851389  0.19593153    -0.19700
H2394       H  0.48920846  0.92656170  0.15290608     0.15900
F2395       F  0.98041926  0.87312244  0.06039915    -0.23500
H2396       H  0.98372176  0.83728805  0.10478859     0.17800
C2397       C  0.00391533  0.67901491  0.15973827    -0.27500
C2398       C  0.99682992  0.65502183  0.17458775     0.06100
C2399       C  0.49042534  0.65493166  0.20582130     0.25700
C2400       C  0.49399580  0.67739596  0.22552465    -0.12000
C2401       C  0.00624043  0.70041375  0.21385061    -0.25900
C2402       C  0.00842408  0.70153739  0.17912612     0.36500
C2403       C  0.99252903  0.63107845  0.15355996     0.06100
F2404       F  0.47831073  0.63381131  0.21894082    -0.19700
H2405       H  0.48753783  0.67735973  0.25109783     0.15900
F2406       F  0.01548697  0.72425579  0.16406506    -0.23400
H2407       H  0.00636035  0.68021821  0.13304903     0.17700
C2408       C  0.97729835  0.63235132  0.12483151     0.25700
C2409       C  0.97466151  0.61038853  0.10400083    -0.12000
C2410       C  0.98695452  0.58644596  0.11120983    -0.26000
C2411       C  0.50067150  0.58411672  0.13992772     0.36600
C2412       C  0.50392998  0.60610802  0.16075334    -0.27600
F2413       F  0.96482606  0.65486371  0.11688484    -0.19700
H2414       H  0.96304716  0.61221221  0.08186078     0.15900
F2415       F  0.51063622  0.56065829  0.14934475    -0.23500
H2416       H  0.51412131  0.60384927  0.18399007     0.17800
C2417       C  0.65073301  0.85348792  0.97552243    -0.27500
C2418       C  0.63153746  0.85317979  0.99980451     0.06100
C2419       C  0.63236311  0.83417022  0.02510677     0.25700
C2420       C  0.65207850  0.81585086  0.02602395    -0.12000
C2421       C  0.67089000  0.81575599  0.00133089    -0.25900
C2422       C  0.67020367  0.83478718  0.97607652     0.36500
C2423       C  0.61066505  0.87262559  0.99860477     0.06100
F2424       F  0.61421793  0.83342501  0.04906942    -0.19700
H2425       H  0.65244866  0.80130905  0.04566491     0.15900
F2426       F  0.68801067  0.83487733  0.95164336    -0.23400
H2427       H  0.65028546  0.86786047  0.95569625     0.17700
C2428       C  0.61596691  0.89964928  0.99727501     0.25700
C2429       C  0.59615757  0.91791156  0.99732930    -0.12000
C2430       C  0.57059300  0.90966727  0.99823910    -0.26000
C2431       C  0.56534647  0.88242424  0.99850194     0.36600
C2432       C  0.58525882  0.86419238  0.99896066    -0.27600
F2433       F  0.64034014  0.90844643  0.99676618    -0.19700
H2434       H  0.60097302  0.93861855  0.99680028     0.15900
F2435       F  0.54110492  0.87324087  0.99828333    -0.23500
H2436       H  0.58084033  0.84337643  0.99933567     0.17800
C2437       C  0.84154258  0.83058571  0.02344480    -0.27500
C2438       C  0.84187343  0.84967343  0.99829241     0.06100
C2439       C  0.82304579  0.84918486  0.97346508     0.25700
C2440       C  0.80394224  0.83013046  0.97421109    -0.12000
C2441       C  0.80329318  0.81142185  0.99975925    -0.25900
C2442       C  0.82231303  0.81163688  0.02432043     0.36500
C2443       C  0.86181555  0.87010223  0.99822459     0.06100
F2444       F  0.82336389  0.86690437  0.94828162    -0.19700
H2445       H  0.78952832  0.82998305  0.95494680     0.15900
F2446       F  0.82194282  0.79385292  0.04943439    -0.23400
H2447       H  0.85591999  0.83071508  0.04275916     0.17700
C2448       C  0.85533440  0.89689235  0.99853488     0.25700
C2449       C  0.87435376  0.91604486  0.99856165    -0.12000
C2450       C  0.90022830  0.90887927  0.99825281    -0.26000
C2451       C  0.90660211  0.88189663  0.99804018     0.36600
C2452       C  0.88751160  0.86279667  0.99819514    -0.27600
F2453       F  0.83060042  0.90453046  0.99957322    -0.19700
H2454       H  0.86871654  0.93653783  0.99892714     0.15900
F2455       F  0.93120152  0.87379235  0.99774574    -0.23500
H2456       H  0.89278599  0.84219107  0.99797042     0.17800
C2457       C  0.81790251  0.63902992  0.97323011    -0.27500
C2458       C  0.83650995  0.63738854  0.99816153     0.06100
C2459       C  0.83554186  0.65458596  0.02556923     0.25700
C2460       C  0.81643321  0.67348936  0.02762962    -0.12000
C2461       C  0.79813485  0.67536890  0.00245829    -0.25900
C2462       C  0.79877088  0.65796716  0.97532789     0.36500
C2463       C  0.85708466  0.61791678  0.99555196     0.06100
F2464       F  0.85293523  0.65288001  0.05044278    -0.19700
H2465       H  0.81595485  0.68682575  0.04868813     0.15900
F2466       F  0.78120707  0.65974721  0.95067423    -0.23400
H2467       H  0.81850203  0.62596131  0.95191669     0.17700
C2468       C  0.85159455  0.59101943  0.99270462     0.25700
C2469       C  0.87131204  0.57265648  0.99294287    -0.12000
C2470       C  0.89682814  0.58084251  0.99593746    -0.26000
C2471       C  0.90219857  0.60799742  0.99737542     0.36600
C2472       C  0.88243911  0.62625935  0.99725344    -0.27600
F2473       F  0.82715066  0.58247952  0.99111021    -0.19700
H2474       H  0.86648601  0.55197683  0.99136281     0.15900
F2475       F  0.92642368  0.61706093  0.99953300    -0.23500
H2476       H  0.88690729  0.64703172  0.99891379     0.17800
C2477       C  0.58531785  0.62617517  0.01937136    -0.27500
C2478       C  0.60774216  0.62146882  0.00140962     0.06100
C2479       C  0.61031855  0.59801906  0.98318197     0.25700
C2480       C  0.59077664  0.57948256  0.98327782    -0.12000
C2481       C  0.56823766  0.58420802  0.00106257    -0.25900
C2482       C  0.56556178  0.60782281  0.01903058     0.36500
C2483       C  0.62847743  0.64094294  0.00242205     0.06100
F2484       F  0.63192335  0.59277553  0.96592235    -0.19700
H2485       H  0.59318960  0.56144946  0.96918684     0.15900
F2486       F  0.54424318  0.61284053  0.03699062    -0.23400
H2487       H  0.58310578  0.64417852  0.03357053     0.17700
C2488       C  0.63803425  0.65200572  0.97297878     0.25700
C2489       C  0.65728049  0.67086934  0.97449108    -0.12000
C2490       C  0.66705779  0.67899249  0.00530398    -0.26000
C2491       C  0.65765080  0.66786503  0.03470272     0.36600
C2492       C  0.63845196  0.64895477  0.03321706    -0.27600
F2493       F  0.62830321  0.64508754  0.94291941    -0.19700
H2494       H  0.66444053  0.67939367  0.95168187     0.15900
F2495       F  0.66717578  0.67521905  0.06470219    -0.23500
H2496       H  0.63137921  0.64046022  0.05609002     0.17800
C2497       C  0.80854073  0.98027875  0.83775871    -0.27500
C2498       C  0.82857210  0.49319301  0.82860865     0.06100
C2499       C  0.82543496  0.50863685  0.79990165     0.25700
C2500       C  0.80209463  0.50887384  0.78294344    -0.12000
C2501       C  0.78230367  0.99692940  0.79233028    -0.25900
C2502       C  0.78528783  0.98118457  0.82092082     0.36500
C2503       C  0.85193650  0.49513102  0.84963501     0.06100
F2504       F  0.84441025  0.52461223  0.78927478    -0.19700
H2505       H  0.79987578  0.52183002  0.76181469     0.15900
F2506       F  0.76582686  0.96640818  0.83276469    -0.23400
H2507       H  0.81000639  0.96822957  0.85985139     0.17700
C2508       C  0.84985957  0.00138297  0.88308224     0.25700
C2509       C  0.87102391  0.00187869  0.90406600    -0.12000
C2510       C  0.89577798  0.49707725  0.89123491    -0.26000
C2511       C  0.89827257  0.49396644  0.85645962     0.36600
C2512       C  0.87651287  0.49286208  0.83598429    -0.27600
F2513       F  0.82654979  0.00580497  0.89649905    -0.19700
H2514       H  0.86780500  0.00521867  0.93033959     0.15900
F2515       F  0.92154763  0.49162078  0.84220502    -0.23500
H2516       H  0.87885755  0.48978710  0.80950387     0.17800
C2517       C  0.59154544  0.51052084  0.83737066    -0.27500
C2518       C  0.61747945  0.00050968  0.85356074     0.06100
C2519       C  0.61979435  0.99422121  0.88736582     0.25700
C2520       C  0.59825345  0.99306374  0.90754788    -0.12000
C2521       C  0.57189593  0.50205920  0.89112562    -0.25900
C2522       C  0.56966045  0.50828246  0.85716915     0.36500
C2523       C  0.64040894  0.00158866  0.83202118     0.06100
F2524       F  0.64288149  0.98872455  0.90083248    -0.19700
H2525       H  0.60090764  0.98795733  0.93345172     0.15900
F2526       F  0.54653444  0.51243619  0.84314044    -0.23400
H2527       H  0.58947172  0.51520598  0.81125464     0.17700
C2528       C  0.64025683  0.49078824  0.80154897     0.25700
C2529       C  0.66276210  0.48886693  0.78330557    -0.12000
C2530       C  0.68534467  0.00189231  0.79261000    -0.26000
C2531       C  0.68304846  0.01832301  0.82089126     0.36600
C2532       C  0.66108377  0.01771092  0.84061592    -0.27600
F2533       F  0.61989502  0.47615309  0.79206233    -0.19700
H2534       H  0.66219075  0.47664573  0.76141144     0.15900
F2535       F  0.70208615  0.03499582  0.82965122    -0.23500
H2536       H  0.66010025  0.03009115  0.86255292     0.17800
C2537       C  0.49013379  0.60974038  0.83894241    -0.27500
C2538       C  0.98550499  0.63445050  0.85342215     0.06100
C2539       C  0.97658390  0.63683176  0.88616425     0.25700
C2540       C  0.97473701  0.61462459  0.90643724    -0.12000
C2541       C  0.98167417  0.58947807  0.89454553    -0.25900
C2542       C  0.48793010  0.58724982  0.85887980     0.36500
C2543       C  0.99027181  0.65815573  0.83289667     0.06100
F2544       F  0.96979577  0.66068574  0.89859651    -0.19700
H2545       H  0.96818007  0.61725936  0.93176133     0.15900
F2546       F  0.49061868  0.56320123  0.84456207    -0.23400
H2547       H  0.49402963  0.60749073  0.81264049     0.17700
C2548       C  0.51381378  0.67527226  0.84058922     0.25700
C2549       C  0.51900041  0.69713961  0.82075957    -0.12000
C2550       C  0.00195530  0.70142374  0.79178389    -0.26000
C2551       C  0.98359847  0.68291392  0.78182708     0.36600
C2552       C  0.97801918  0.66128573  0.80211586    -0.27600
F2553       F  0.52939240  0.66976519  0.86661034    -0.19700
H2554       H  0.53540888  0.70926732  0.82635198     0.15900
F2555       F  0.97179088  0.68524639  0.75195693    -0.23500
H2556       H  0.96427159  0.64684329  0.79373107     0.17800
C2557       C  0.49541758  0.81399412  0.83970936    -0.27500
C2558       C  0.99518298  0.83974766  0.82527314     0.06100
C2559       C  0.98890256  0.83889095  0.79123080     0.25700
C2560       C  0.99336134  0.81603943  0.77251189    -0.12000
C2561       C  0.00419025  0.79373464  0.78728769    -0.25900
C2562       C  0.49891496  0.79183687  0.81939600     0.36500
C2563       C  0.99065241  0.86385939  0.84571374     0.06100
F2564       F  0.97822034  0.86001790  0.77612521    -0.19700
H2565       H  0.98865220  0.81582490  0.74627848     0.15900
F2566       F  0.49674307  0.76749010  0.83288067    -0.23400
H2567       H  0.49152866  0.81087845  0.86580857     0.17700
C2568       C  0.47522130  0.86345873  0.87409648     0.25700
C2569       C  0.47254688  0.88529655  0.89505795    -0.12000
C2570       C  0.98559083  0.90879958  0.88737434    -0.26000
C2571       C  0.99724549  0.91091860  0.85596459     0.36600
C2572       C  0.99962879  0.88863551  0.83533799    -0.27600
F2573       F  0.45936136  0.84271840  0.87864384    -0.19700
H2574       H  0.45854809  0.88465317  0.91481128     0.15900
F2575       F  0.00765943  0.93401518  0.84601031    -0.23500
H2576       H  0.00945401  0.89051715  0.81180725     0.17800
C2577       C  0.89737004  0.75278638  0.61423800    -0.27500
C2578       C  0.89467356  0.74941695  0.64859974     0.06100
C2579       C  0.86996824  0.74748114  0.66195049     0.25700
C2580       C  0.84851167  0.74821474  0.64097459    -0.12000
C2581       C  0.85131062  0.75071875  0.60630561    -0.25900
C2582       C  0.87625186  0.75314398  0.59330757     0.36500
C2583       C  0.91798065  0.74702527  0.66955092     0.06100
F2584       F  0.86661010  0.74379557  0.69505210    -0.19700
H2585       H  0.82976984  0.74623356  0.65181670     0.15900
F2586       F  0.88063380  0.75555854  0.56017021    -0.23400
H2587       H  0.91610945  0.75483408  0.60335617     0.17700
C2588       C  0.93777723  0.73001172  0.65981028     0.25700
C2589       C  0.96059662  0.72926738  0.67761267    -0.12000
C2590       C  0.96430204  0.74526367  0.70575107    -0.26000
C2591       C  0.94417476  0.76159517  0.71633104     0.36600
C2592       C  0.92130111  0.76251517  0.69825567    -0.27600
F2593       F  0.93501748  0.71393023  0.63302897    -0.19700
H2594       H  0.97546694  0.71605395  0.66930749     0.15900
F2595       F  0.94694669  0.77762437  0.74311927    -0.23500
H2596       H  0.90647220  0.77594989  0.70610657     0.17800
C2597       C  0.65482867  0.74633838  0.66115606    -0.27500
C2598       C  0.63023873  0.74546009  0.64731247     0.06100
C2599       C  0.62764232  0.74438392  0.61263405     0.25700
C2600       C  0.64907072  0.74489477  0.59228642    -0.12000
C2601       C  0.67382759  0.74643285  0.60580567    -0.25900
C2602       C  0.67647070  0.74677394  0.64067526     0.36500
C2603       C  0.60721651  0.74564523  0.66872240     0.06100
F2604       F  0.60430904  0.74236332  0.59833128    -0.19700
H2605       H  0.64605945  0.74411950  0.56565833     0.15900
F2606       F  0.69980716  0.74772729  0.65504320    -0.23400
H2607       H  0.65725932  0.74709735  0.68788628     0.17700
C2608       C  0.60437502  0.72750930  0.69466200     0.25700
C2609       C  0.58202518  0.72698442  0.71351209    -0.12000
C2610       C  0.56170605  0.74441768  0.70681685    -0.26000
C2611       C  0.56505530  0.76303144  0.68117778     0.36600
C2612       C  0.58744092  0.76351782  0.66241896    -0.27600
F2613       F  0.62293735  0.70969411  0.70121839    -0.19700
H2614       H  0.58128580  0.71287329  0.73337572     0.15900
F2615       F  0.54657090  0.78082965  0.67413698    -0.23500
H2616       H  0.58934652  0.77795631  0.64281727     0.17800
C2617       C  0.74104057  0.63845991  0.65686718    -0.27500
C2618       C  0.75694387  0.61634121  0.65277460     0.06100
C2619       C  0.77493020  0.61661272  0.62681881     0.25700
C2620       C  0.77660600  0.63820509  0.60539584    -0.12000
C2621       C  0.76072205  0.66019635  0.60952356    -0.25900
C2622       C  0.74296180  0.66022660  0.63561906     0.36500
C2623       C  0.75409051  0.59286548  0.67483682     0.06100
F2624       F  0.79110783  0.59611367  0.62224612    -0.19700
H2625       H  0.79040053  0.63774436  0.58539738     0.15900
F2626       F  0.72652108  0.68061415  0.63941932    -0.23400
H2627       H  0.72654938  0.63860763  0.67598166     0.17700
C2628       C  0.75084192  0.59577472  0.70944828     0.25700
C2629       C  0.74617663  0.57379431  0.72945536    -0.12000
C2630       C  0.74540931  0.54840447  0.71565112    -0.26000
C2631       C  0.74997671  0.54520626  0.68151197     0.36600
C2632       C  0.75385743  0.56725430  0.66126122    -0.27600
F2633       F  0.75233151  0.61984048  0.72403383    -0.19700
H2634       H  0.74299444  0.57658866  0.75584710     0.15900
F2635       F  0.74928288  0.52090879  0.66743975    -0.23500
H2636       H  0.75592588  0.56429486  0.63473230     0.17800
C2637       C  0.76823657  0.91769731  0.69614203    -0.27500
C2638       C  0.75107123  0.90930756  0.67151295     0.06100
C2639       C  0.72920983  0.92443397  0.66530250     0.25700
C2640       C  0.72461727  0.94750245  0.68344847    -0.12000
C2641       C  0.74187844  0.95613834  0.70785050    -0.25900
C2642       C  0.76373973  0.94098293  0.71415218     0.36500
C2643       C  0.75646442  0.88569514  0.65083890     0.06100
F2644       F  0.71213532  0.91664326  0.64192224    -0.19700
H2645       H  0.70738415  0.95856737  0.67870268     0.15900
F2646       F  0.78010449  0.94803803  0.73871151    -0.23400
H2647       H  0.78514943  0.90624586  0.70130134     0.17700
C2648       C  0.76430378  0.88882837  0.61780229     0.25700
C2649       C  0.76703002  0.86695811  0.59691963    -0.12000
C2650       C  0.76184454  0.84128023  0.60832184    -0.26000
C2651       C  0.75490826  0.83809978  0.64201572     0.36600
C2652       C  0.75226680  0.86017022  0.66300109    -0.27600
F2653       F  0.76886169  0.91323544  0.60554840    -0.19700
H2654       H  0.77277980  0.87030374  0.57142777     0.15900
F2655       F  0.74970203  0.81389505  0.65441875    -0.23500
H2656       H  0.74616324  0.85741598  0.68847335     0.17800
C2657       C  0.89277475  0.65085067  0.49760537    -0.27500
C2658       C  0.88654622  0.62410378  0.49869098     0.06100
C2659       C  0.86087605  0.61649082  0.49851195     0.25700
C2660       C  0.84173842  0.63555201  0.49806626    -0.12000
C2661       C  0.84789252  0.66250013  0.49773362    -0.25900
C2662       C  0.87376965  0.66993147  0.49714546     0.36500
C2663       C  0.90708819  0.60452631  0.50166815     0.06100
F2664       F  0.85434089  0.59065639  0.49845637    -0.19700
H2665       H  0.82209681  0.62914031  0.49819777     0.15900
F2666       F  0.88094473  0.69558040  0.49659460    -0.23400
H2667       H  0.91250369  0.65700324  0.49790365     0.17700
C2668       C  0.92692285  0.60368852  0.47829332     0.25700
C2669       C  0.94706006  0.58608261  0.48243113    -0.12000
C2670       C  0.94768162  0.56914943  0.50989556    -0.26000
C2671       C  0.92789724  0.57006699  0.53335815     0.36600
C2672       C  0.90772301  0.58763034  0.52917783    -0.27600
F2673       F  0.92646045  0.61946274  0.45111177    -0.19700
H2674       H  0.96191174  0.58516848  0.46380873     0.15900
F2675       F  0.92799253  0.55375018  0.56000994    -0.23500
H2676       H  0.89272243  0.58829667  0.54761737     0.17800
C2677       C  0.63408561  0.64870182  0.49262467    -0.27500
C2678       C  0.63871664  0.62439668  0.50788594     0.06100
C2679       C  0.66293982  0.61922368  0.52120310     0.25700
C2680       C  0.68212538  0.63820175  0.51921442    -0.12000
C2681       C  0.67744606  0.66260651  0.50401291    -0.25900
C2682       C  0.65315713  0.66768804  0.49073487     0.36500
C2683       C  0.61824911  0.60448116  0.50877172     0.06100
F2684       F  0.66826966  0.59560088  0.53524617    -0.19700
H2685       H  0.70063428  0.63383561  0.52969227     0.15900
F2686       F  0.64794607  0.69073142  0.47515554    -0.23400
H2687       H  0.61556125  0.65299571  0.48213894     0.17700
C2688       C  0.61064841  0.59281767  0.53885862     0.25700
C2689       C  0.59073366  0.57459394  0.53914597    -0.12000
C2690       C  0.57827430  0.56779936  0.50951737    -0.26000
C2691       C  0.58583624  0.57936724  0.47949263     0.36600
C2692       C  0.60562364  0.59764071  0.47918898    -0.27600
F2693       F  0.62209218  0.59943975  0.56797001    -0.19700
H2694       H  0.58505212  0.56566895  0.56241181     0.15900
F2695       F  0.57437400  0.57254427  0.45046413    -0.23500
H2696       H  0.61131017  0.60629956  0.45576009     0.17800
C2697       C  0.61805047  0.91421975  0.53018387    -0.27500
C2698       C  0.61896479  0.89521713  0.50479436     0.06100
C2699       C  0.59997797  0.89503765  0.48012657     0.25700
C2700       C  0.58039697  0.91350014  0.48098180    -0.12000
C2701       C  0.57947312  0.93243443  0.50632144    -0.25900
C2702       C  0.59845726  0.93277645  0.53094811     0.36500
C2703       C  0.63939503  0.87529540  0.50421137     0.06100
F2704       F  0.60074634  0.87741928  0.45470657    -0.19700
H2705       H  0.56610866  0.91333950  0.46155552     0.15900
F2706       F  0.59805636  0.95114951  0.55551419    -0.23400
H2707       H  0.63238306  0.91452770  0.54954581     0.17700
C2708       C  0.66512851  0.88258461  0.50619037     0.25700
C2709       C  0.68411459  0.86341950  0.50426915    -0.12000
C2710       C  0.67779171  0.83667348  0.50042176    -0.26000
C2711       C  0.65189734  0.82951176  0.49864214     0.36600
C2712       C  0.63303133  0.84866079  0.50075573    -0.27600
F2713       F  0.67194482  0.90824714  0.50911316    -0.19700
H2714       H  0.70379216  0.86960007  0.50581827     0.15900
F2715       F  0.64458590  0.80407968  0.49465379    -0.23500
H2716       H  0.61328208  0.84264390  0.49962603     0.17800
C2717       C  0.89231605  0.84946838  0.50852842    -0.27500
C2718       C  0.88552703  0.87598466  0.50521118     0.06100
C2719       C  0.85983883  0.88279630  0.50150715     0.25700
C2720       C  0.84126942  0.86318586  0.50041552    -0.12000
C2721       C  0.84796234  0.83644657  0.50320155    -0.25900
C2722       C  0.87379332  0.82981380  0.50778608     0.36500
C2723       C  0.90560242  0.89615786  0.50389977     0.06100
F2724       F  0.85280558  0.90831324  0.49777085    -0.19700
H2725       H  0.82163798  0.86901576  0.49692252     0.15900
F2726       F  0.88131169  0.80444860  0.51160560    -0.23400
H2727       H  0.91209659  0.84400093  0.51161097     0.17700
C2728       C  0.90692910  0.91634309  0.52776635     0.25700
C2729       C  0.92683396  0.93454495  0.52670318    -0.12000
C2730       C  0.94525169  0.93316589  0.50143240    -0.26000
C2731       C  0.94333873  0.91352186  0.47696603     0.36600
C2732       C  0.92386489  0.89493114  0.47853806    -0.27600
F2733       F  0.88926702  0.91816971  0.55228137    -0.19700
H2734       H  0.92786222  0.94985881  0.54545410     0.15900
F2735       F  0.96000231  0.91270026  0.45123473    -0.23500
H2736       H  0.92277403  0.87972490  0.45965440     0.17800
C2737       C  0.65532656  0.74526282  0.33681424    -0.27500
C2738       C  0.63107235  0.75041471  0.34999710     0.06100
C2739       C  0.62875737  0.75717338  0.38364740     0.25700
C2740       C  0.65023515  0.75827372  0.40390940    -0.12000
C2741       C  0.67459042  0.75223598  0.39131176    -0.25900
C2742       C  0.67696688  0.74602716  0.35728183     0.36500
C2743       C  0.60804529  0.74892469  0.32892090     0.06100
F2744       F  0.60564741  0.76286785  0.39690952    -0.19700
H2745       H  0.64761637  0.76356813  0.42979335     0.15900
F2746       F  0.69992728  0.73985909  0.34400156    -0.23400
H2747       H  0.65739516  0.74005679  0.31081847     0.17700
C2748       C  0.60508361  0.76563799  0.30158332     0.25700
C2749       C  0.58236193  0.76566792  0.28349785    -0.12000
C2750       C  0.56188576  0.74907714  0.29236824    -0.26000
C2751       C  0.56566025  0.73133006  0.31890488     0.36600
C2752       C  0.58830591  0.73159753  0.33718542    -0.27600
F2753       F  0.62395189  0.78249265  0.29288907    -0.19700
H2754       H  0.58146916  0.77851442  0.26227876     0.15900
F2755       F  0.54735973  0.71375476  0.32738834    -0.23500
H2756       H  0.59045490  0.71825738  0.35796394     0.17800
C2757       C  0.89580970  0.73567624  0.38231708    -0.27500
C2758       C  0.89392320  0.74326385  0.34899776     0.06100
C2759       C  0.86984118  0.74970651  0.33599893     0.25700
C2760       C  0.84827012  0.74983627  0.35676666    -0.12000
C2761       C  0.85043300  0.74342338  0.39071781    -0.25900
C2762       C  0.87451020  0.73559614  0.40290543     0.36500
C2763       C  0.91762198  0.74561061  0.32912104     0.06100
F2764       F  0.86739505  0.75698076  0.30371217    -0.19700
H2765       H  0.83009099  0.75574066  0.34654739     0.15900
F2766       F  0.87775137  0.72797592  0.43495822    -0.23400
H2767       H  0.91408012  0.73012280  0.39263271     0.17700
C2768       C  0.93741617  0.76196411  0.34040614     0.25700
C2769       C  0.96055425  0.76292211  0.32343655    -0.12000
C2770       C  0.96479682  0.74721949  0.29518272    -0.26000
C2771       C  0.94497071  0.73076926  0.28380681     0.36600
C2772       C  0.92150752  0.73022494  0.30050932    -0.27600
F2773       F  0.93441067  0.77695626  0.36812102    -0.19700
H2774       H  0.97525934  0.77599017  0.33257733     0.15900
F2775       F  0.94863126  0.71416889  0.25775358    -0.23500
H2776       H  0.90670689  0.71704394  0.29187949     0.17800
C2777       C  0.74575530  0.85896213  0.33939841    -0.27500
C2778       C  0.75846685  0.88264925  0.34664564     0.06100
C2779       C  0.77429160  0.88388591  0.37480032     0.25700
C2780       C  0.77658733  0.86211503  0.39579898    -0.12000
C2781       C  0.76331654  0.83866167  0.38906396    -0.25900
C2782       C  0.74821744  0.83710111  0.36026535     0.36500
C2783       C  0.75332919  0.90647451  0.32641747     0.06100
F2784       F  0.78630938  0.90660328  0.38314321    -0.19700
H2785       H  0.78828771  0.86380363  0.41789654     0.15900
F2786       F  0.73455531  0.81507812  0.35343632    -0.23400
H2787       H  0.73337142  0.85762718  0.31791627     0.17700
C2788       C  0.77310089  0.92178846  0.31302969     0.25700
C2789       C  0.76756434  0.94421527  0.29415376    -0.12000
C2790       C  0.74226966  0.95163486  0.28786094    -0.26000
C2791       C  0.72252278  0.93653887  0.30212899     0.36600
C2792       C  0.72809893  0.91423080  0.32092972    -0.27600
F2793       F  0.79774251  0.91455352  0.31713591    -0.19700
H2794       H  0.78316296  0.95523470  0.28365321     0.15900
F2795       F  0.69772534  0.94341877  0.29855840    -0.23500
H2796       H  0.71257735  0.90305890  0.33158124     0.17800
C2797       C  0.74505400  0.61339593  0.37862990    -0.27500
C2798       C  0.75586904  0.61452807  0.34684299     0.06100
C2799       C  0.76750401  0.63810616  0.33648652     0.25700
C2800       C  0.76889233  0.65980579  0.35815054    -0.12000
C2801       C  0.75851786  0.65837848  0.39032342    -0.25900
C2802       C  0.74614074  0.63501568  0.40003131     0.36500
C2803       C  0.75325450  0.59151396  0.32424351     0.06100
F2804       F  0.77784858  0.63999526  0.30566523    -0.19700
H2805       H  0.77838267  0.67755144  0.34996930     0.15900
F2806       F  0.73432800  0.63326485  0.42995622    -0.23400
H2807       H  0.73516614  0.59583306  0.38666938     0.17700
C2808       C  0.75981287  0.56595302  0.33473600     0.25700
C2809       C  0.75423747  0.54408653  0.31465348    -0.12000
C2810       C  0.74234482  0.54739101  0.28366664    -0.26000
C2811       C  0.73739194  0.57314142  0.27238099     0.36600
C2812       C  0.74244362  0.59483231  0.29268902    -0.27600
F2813       F  0.77169581  0.56218952  0.36432972    -0.19700
H2814       H  0.75880674  0.52457204  0.32359737     0.15900
F2815       F  0.72815267  0.57751482  0.24136396    -0.23500
H2816       H  0.73742074  0.61428528  0.28393960     0.17800
loop_ 
_geom_bond_atom_site_label_1 
_geom_bond_atom_site_label_2 
_geom_bond_distance 
_geom_bond_site_symmetry_2 
_ccdc_geom_bond_type 
O1           C12   1.298       .  A
O1          Eu37   2.493       .  S
O2           C13   1.295       .  A
O2          Eu36   2.476       .  S
O3           C14   1.289       .  A
O3           Eu9   2.446       .  S
O4           C15   1.290       .  A
O4           Eu9   2.454       .  S
O5           C15   1.288       .  A
O5          Eu39   2.444       .  S
O6           C14   1.286       .  A
O6          Eu38   2.429       .  S
O7           C13   1.291       .  A
O7           Eu9   2.456       .  S
O8           C12   1.294       .  A
O8           Eu9   2.470       .  S
Eu9          O19   2.352       .  S
Eu9          O11   2.349       .  S
Eu9          O10   2.349       .  S
Eu9          O17   2.359       .  S
O10         Eu39   2.338       .  S
O10         Eu36   2.366       .  S
O11         Eu37   2.369       .  S
O11         Eu38   2.348       .  S
C12         C689   1.497       .  S
C13         C509   1.476       .  S
C14         C549   1.477       .  S
C15         C569   1.477       .  S
H16          O17   0.959       .  S
O17         Eu38   2.335       .  S
O17         Eu36   2.365       .  S
H18          O19   0.962       .  S
O19         Eu37   2.368       .  S
O19         Eu39   2.337       .  S
O20          C43   1.296       .  A
O20         Eu36   2.481       .  S
O21          C44   1.299       .  A
O21         Eu37   2.503       .  S
O22          C45   1.288       .  A
O22         Eu38   2.440       .  S
O23          C46   1.287       .  A
O23         Eu39   2.427       .  S
O24          C47   1.287       .  A
O24         Eu39   2.428       .  S
O25          C48   1.285       .  A
O25         Eu38   2.421       .  S
O26          C49   1.289       .  A
O26         Eu40   2.446       .  S
O27          C50   1.291       .  A
O27         Eu40   2.457       .  S
O28          C49   1.286       .  A
O28         Eu38   2.434       .  S
O29          C50   1.287       .  A
O29         Eu39   2.434       .  S
O30          C45   1.302       .  A
O30         Eu36   2.524       .  S
O31          C48   1.296       .  A
O31         Eu37   2.486       .  S
O32          C47   1.295       .  A
O32         Eu37   2.482       .  S
O33          C46   1.299       .  A
O33         Eu36   2.509       .  S
O34          C43   1.289       .  A
O34         Eu40   2.436       .  S
O35          C44   1.291       .  A
O35         Eu40   2.457       .  S
Eu36         O54   2.366       .  S
Eu36         O42   2.365       .  S
Eu37         O41   2.360       .  S
Eu37         O52   2.361       .  S
Eu38         O52   2.345       .  S
Eu38         O42   2.341       .  S
Eu39         O41   2.346       .  S
Eu39         O54   2.341       .  S
Eu40         O41   2.346       .  S
Eu40         O52   2.344       .  S
Eu40         O54   2.355       .  S
Eu40         O42   2.355       .  S
C43         C538   1.477       .  S
C44         C669   1.493       .  S
C45         C469   1.508       .  S
C46         C489   1.497       .  S
C47         C629   1.485       .  S
C48         C649   1.488       .  S
C49         C609   1.478       .  S
C50         C598   1.480       .  S
H51          O52   0.958       .  S
H53          O54   0.961       .  S
N55          C60   1.352       .  A
N55         C763   1.351       .  A
N55          H87   1.039       .  S
N56          C64   1.349       .  A
N56        C1471   1.349       .  A
N57          C62   1.351       .  A
N57         C765   1.352       .  A
N57          H88   1.039       .  S
N58          C66   1.348       .  A
N58        C1473   1.350       .  A
C59         N759   1.352       .  A
C59          C67   1.388       .  A
C59          C75   1.412       .  A
C60          C76   1.409       .  A
C60          C68   1.385       .  A
C61         N761   1.351       .  A
C61          C69   1.386       .  A
C61          C78   1.409       .  A
C62          C77   1.411       .  A
C62          C70   1.387       .  A
C63        N1464   1.349       .  A
C63          C75   1.410       .  A
C63          C71   1.387       .  A
C64          C78   1.409       .  A
C64          C72   1.386       .  A
C65        N1466   1.350       .  A
C65          C73   1.385       .  A
C65          C76   1.407       .  A
C66          C74   1.387       .  A
C66          C77   1.410       .  A
C67         C772   1.374   1_545  A
C67          H79   1.081       .  S
C68         C771   1.373       .  A
C68          H80   1.082       .  S
C69         C774   1.372   1_545  A
C69          H81   1.083       .  S
C70         C773   1.373       .  A
C70          H82   1.082       .  S
C71        C1480   1.375   1_455  A
C71          H83   1.082       .  S
C72        C1479   1.374       .  A
C72          H84   1.082       .  S
C73        C1482   1.372   1_455  A
C73          H85   1.082       .  S
C74        C1481   1.373       .  A
C74          H86   1.082       .  S
C75         C578   1.480       .  S
C76         C589   1.479       .  S
C77         C618   1.478       .  S
C78         C558   1.477       .  S
O89         C100   1.296       .  A
O89        Eu125   2.483       .  S
O90         C101   1.297       .  A
O90        Eu124   2.487       .  S
O91         C102   1.292       .  A
O91       Eu1505   2.466   1_455  S
O92         C103   1.289       .  A
O92         Eu97   2.448       .  S
O93         C103   1.288       .  A
O93        Eu127   2.439       .  S
O94         C102   1.289       .  A
O94        Eu126   2.448       .  S
O95         C101   1.287       .  A
O95         Eu97   2.431   1_554  S
O96         C100   1.287       .  A
O96         Eu97   2.430       .  S
Eu97       O1499   2.459       .  S
Eu97        O107   2.352       .  S
Eu97         O98   2.339   1_556  S
Eu97       O1507   2.344       .  S
Eu97       O1513   2.348   1_556  S
O98        Eu127   2.335   1_554  S
O98        Eu124   2.362       .  S
O99        Eu126   2.342       .  S
O99       Eu1505   2.348   1_455  S
O99       Eu1533   2.367   1_455  S
C100        C458   1.473       .  S
C101        C278   1.490       .  S
C102        C318   1.488   1_556  S
C103        C338   1.482       .  S
H104        O105   0.976       .  S
O105       Eu126   2.341   1_554  S
O105      Eu1505   2.352   1_454  S
O105      Eu1532   2.367   1_455  S
H106        O107   0.968       .  S
O107       Eu125   2.370       .  S
O107       Eu127   2.349       .  S
O108        C131   1.300       .  A
O108       Eu828   2.514   1_545  S
O109        C132   1.299       .  A
O109       Eu829   2.501   1_545  S
O110        C133   1.285       .  A
O110       Eu126   2.421   1_554  S
O111        C134   1.291       .  A
O111       Eu127   2.447   1_554  S
O112        C839   1.291       .  A
O112       Eu127   2.448       .  S
O113        C840   1.286       .  A
O113       Eu126   2.419       .  S
O114        C137   1.290       .  A
O114      Eu1536   2.456   1_455  S
O115        C138   1.292       .  A
O115       Eu128   2.464       .  S
O116        C137   1.286       .  A
O116       Eu830   2.428   1_544  S
O117        C138   1.286       .  A
O117       Eu831   2.424   1_545  S
O118        C133   1.296       .  A
O118      Eu1532   2.490   1_455  S
O119        C136   1.299       .  A
O119      Eu2237   2.503   1_445  S
O120        C135   1.299       .  A
O120       Eu829   2.505       .  S
O121        C134   1.293       .  A
O121       Eu124   2.471       .  S
O122        C131   1.287       .  A
O122       Eu128   2.427       .  S
O123        C132   1.287       .  A
O123       Eu128   2.426   1_556  S
Eu124       O812   2.498       .  S
Eu124      O1526   2.489       .  S
Eu124      O1513   2.362       .  S
Eu124       O846   2.374       .  S
Eu124      O2242   2.350       .  S
Eu125       O813   2.489       .  S
Eu125      O2231   2.502       .  S
Eu125       O824   2.510       .  S
Eu125      O1507   2.365       .  S
Eu125       O833   2.359       .  S
Eu125      O2252   2.362       .  S
Eu126       O820   2.438       .  S
Eu126       O844   2.345       .  S
Eu126       O834   2.345   1_556  S
Eu127       O821   2.428       .  S
Eu127       O833   2.340       .  S
Eu127       O846   2.358   1_556  S
Eu128      O1522   2.462       .  S
Eu128       O129   2.341   1_554  S
Eu128       O142   2.350       .  S
Eu128      O1548   2.352   1_554  S
Eu128      O1538   2.342       .  S
O129       Eu829   2.361   1_545  S
O129       Eu831   2.342   1_546  S
O130      Eu2236   2.351   1_445  S
O130       Eu830   2.339   1_544  S
O130      Eu1536   2.341   1_455  S
C131        C298   1.495       .  S
C132        C429   1.494       .  S
C133        C229   1.481       .  S
C134        C258   1.489       .  S
C135        O816   1.290       .  A
C135        C398   1.498       .  S
C136        O817   1.287   1_545  A
C136        C409   1.495       .  S
C137        C369   1.473       .  S
C138        C358   1.481   1_554  S
H139        O140   0.972       .  S
O140      Eu2237   2.364   1_445  S
O140       Eu830   2.347   1_545  S
O140      Eu1536   2.350   1_456  S
H141        O142   0.970       .  S
O142       Eu828   2.374   1_545  S
O142       Eu831   2.360   1_545  S
N143        C148   1.351       .  A
N143        C147   1.351   1_554  A
N143        H175   1.039       .  S
N144        C151   1.348       .  A
N144        C152   1.348       .  A
N145        C150   1.352       .  A
N145        C149   1.352       .  A
N145        H176   1.037       .  S
N146        C153   1.351       .  A
N146        C154   1.350       .  A
C147        C155   1.388       .  A
C147        C163   1.412   1_556  A
C148        C164   1.410       .  A
C148        C156   1.386   1_554  A
C149        C157   1.387   1_554  A
C149        C166   1.413       .  A
C150        C165   1.413       .  A
C150        C158   1.387   1_554  A
C151        C163   1.407       .  A
C151        C159   1.387       .  A
C152        C166   1.408       .  A
C152        C160   1.387       .  A
C153        C161   1.386       .  A
C153        C164   1.410       .  A
C154        C162   1.385       .  A
C154        C165   1.410       .  A
C155        C156   1.374       .  A
C155        H167   1.082       .  S
C156        H168   1.082       .  S
C157        C158   1.374       .  A
C157        H169   1.082       .  S
C158        H170   1.082       .  S
C159        C160   1.371       .  A
C159        H171   1.082       .  S
C160        H172   1.083       .  S
C161        C162   1.371       .  A
C161        H173   1.082       .  S
C162        H174   1.082       .  S
C163        C349   1.473       .  S
C164        C329   1.481       .  S
C165        C309   1.481       .  S
C166        C378   1.474       .  S
C177        C178   1.535       .  S
C177        C181   1.541       .  S
C177       C1591   1.544       .  S
C177        C638   1.534       .  S
C178        H185   1.086       .  S
C178       C1587   1.365       .  D
C179        C180   1.544       .  S
C179       C1586   1.360       .  D
C179        C289   1.479       .  S
C180        C184   1.540       .  S
C180        C182   1.543       .  S
C180        H186   1.111       .  S
C181        H187   1.082       .  S
C181       C1590   1.361       .  D
C182       C1589   1.362       .  D
C182        C269   1.480       .  S
C183       C1585   1.546       .  S
C183        H188   1.086       .  S
C183        C184   1.373       .  D
C184        C658   1.489       .  S
C189        C190   1.531       .  S
C189        C195   1.542       .  S
C189        C897   1.538       .  S
C189        C238   1.537       .  S
C190        H197   1.084       .  S
C190        C191   1.369       .  D
C191        C192   1.554       .  S
C191        C678   1.506       .  S
C192        C196   1.541       .  S
C192        C898   1.549       .  S
C192        H198   1.109       .  S
C193        C893   1.532   1_545  S
C193        H199   1.086       .  S
C193        C194   1.365       .  D
C194        C896   1.550   1_545  S
C194        C698   1.496       .  S
C195        H200   1.082       .  S
C195        C196   1.365       .  D
C196        C249   1.481       .  S
C201        C202   1.534       .  S
C201        C205   1.544       .  S
C201       C1615   1.543       .  S
C201        C498   1.539       .  S
C202        H209   1.087       .  S
C202       C1611   1.360       .  D
C203        C204   1.543       .  S
C203       C1610   1.360       .  D
C203        C449   1.477       .  S
C204        C208   1.546       .  S
C204        C206   1.541       .  S
C204        H210   1.110       .  S
C205        H211   1.081       .  S
C205       C1614   1.366       .  D
C206       C1613   1.365       .  D
C206        C438   1.484       .  S
C207       C1609   1.545       .  S
C207        H212   1.086       .  S
C207        C208   1.373       .  D
C208        C478   1.501       .  S
C213        C219   1.537       .  S
C213        C217   1.537       .  S
C213        C918   1.528       .  S
C213        C418   1.534       .  S
C214        C917   1.535       .  S
C214        H221   1.087       .  S
C214        C215   1.365       .  D
C215        C920   1.543       .  S
C215        C518   1.480       .  S
C216        C220   1.550       .  S
C216        C218   1.543       .  S
C216        C919   1.553       .  S
C216        H222   1.109       .  S
C217        H223   1.082       .  S
C217        C218   1.362       .  D
C218        C529   1.483       .  S
C219        H224   1.085       .  S
C219        C220   1.371       .  D
C220        C389   1.498       .  S
C225        C230   1.391       .  A
C225        C930   1.401   1_545  A
C225        H235   1.083       .  S
C226        C231   1.491       .  S
C226        C227   1.412       .  A
C226        C929   1.402       .  A
C227        C228   1.406       .  A
C227        F232   1.357       .  S
C228        C229   1.404       .  A
C228        H233   1.083       .  S
C229        C934   1.410       .  A
C230        C933   1.408   1_545  A
C230        F234   1.358       .  S
C231        C240   1.403       .  A
C231        C940   1.408       .  A
C236        C237   1.398       .  A
C236        C935   1.408       .  A
C236        F241   1.358       .  S
C237        C942   1.409       .  A
C237        H242   1.077       .  S
C238        C239   1.414       .  A
C238        C941   1.411       .  A
C239        C240   1.401       .  A
C239        F243   1.357       .  S
C240        H244   1.083       .  S
C245        C250   1.393       .  A
C245        C950   1.404   1_545  A
C245        H255   1.084       .  S
C246        C251   1.478       .  S
C246        C247   1.403       .  A
C246        C949   1.404       .  A
C247        C248   1.400       .  A
C247        F252   1.357       .  S
C248        C249   1.403       .  A
C248        H253   1.079       .  S
C249        C954   1.407       .  A
C250        C953   1.401   1_545  A
C250        F254   1.358       .  S
C251        C256   1.400       .  A
C251        C260   1.405       .  A
C256        C257   1.390       .  A
C256        F965   1.358       .  S
C257        C258   1.409       .  A
C257        H966   1.083       .  S
C258        C259   1.413       .  A
C259        C260   1.405       .  A
C259        F263   1.357       .  S
C260        H264   1.083       .  S
F261        C960   1.358   1_545  S
H262        C961   1.083   1_545  S
C265        C270   1.397       .  A
C265       C1674   1.403   1_455  A
C265        H275   1.084       .  S
C266        C271   1.481       .  S
C266        C267   1.406       .  A
C266       C1673   1.404       .  A
C267        C268   1.404       .  A
C267        F272   1.357       .  S
C268        C269   1.404       .  A
C268        H273   1.083       .  S
C269       C1678   1.405       .  A
C270       C1677   1.405       .  A
C270        F274   1.358       .  S
C271        C280   1.398       .  A
C271       C1684   1.407       .  A
C276        C277   1.402       .  A
C276       C1679   1.405       .  A
C276        F281   1.357       .  S
C277       C1686   1.407       .  A
C277        H282   1.083       .  S
C278        C279   1.416       .  A
C278       C1685   1.408       .  A
C279        C280   1.394       .  A
C279        F283   1.358       .  S
C280        H284   1.084       .  S
C285        C286   1.405       .  A
C285        C290   1.401       .  A
C285        H295   1.083       .  S
C286        C291   1.483       .  S
C286       C1695   1.405       .  A
C287        C288   1.401       .  A
C287       C1694   1.411       .  A
C287        F292   1.357       .  S
C288       C1697   1.404       .  A
C288        H293   1.083       .  S
C289        C290   1.404       .  A
C289       C1696   1.402       .  A
C290        F294   1.358       .  S
C291        C296   1.400       .  A
C291       C1708   1.407       .  A
C296        C297   1.396       .  A
C296        F301   1.358       .  S
C297        C298   1.412       .  A
C297        H302   1.083       .  S
C298       C1707   1.410       .  A
C299        C300   1.406       .  A
C299       C1706   1.406   1_455  A
C299        F303   1.357       .  S
C300       C1699   1.411   1_455  A
C300        H304   1.083       .  S
C305        C306   1.406   1_556  A
C305        C310   1.399       .  A
C305        H315   1.083       .  S
C306        C311   1.481       .  S
C306        C307   1.407       .  A
C307        C308   1.396       .  A
C307        F312   1.357       .  S
C308        C309   1.400       .  A
C308        H313   1.083       .  S
C309        C310   1.404   1_554  A
C310        F314   1.358       .  S
C311        C316   1.404   1_554  A
C311        C320   1.404       .  A
C316        C317   1.398       .  A
C316        F321   1.358       .  S
C317        C318   1.410   1_556  A
C317        H322   1.083       .  S
C318        C319   1.411       .  A
C319        C320   1.399       .  A
C319        F323   1.357       .  S
C320        H324   1.083       .  S
C325        C326   1.405       .  A
C325        C330   1.398       .  A
C325        H335   1.083       .  S
C326        C331   1.476       .  S
C326        C327   1.405   1_554  A
C327        C328   1.394       .  A
C327        F332   1.357       .  S
C328        C329   1.401   1_556  A
C328        H333   1.083       .  S
C329        C330   1.405       .  A
C330        F334   1.358       .  S
C331        C336   1.404       .  A
C331        C340   1.402       .  A
C336        C337   1.394   1_554  A
C336        F341   1.358   1_554  S
C337        C338   1.408       .  A
C337        H342   1.083       .  S
C338        C339   1.411   1_556  A
C339        C340   1.396       .  A
C339        F343   1.357       .  S
C340        H344   1.083       .  S
C345        C346   1.404       .  A
C345        C350   1.396       .  A
C345        H355   1.083       .  S
C346        C351   1.470       .  S
C346        C347   1.405   1_556  A
C347        C348   1.391       .  A
C347        F352   1.357       .  S
C348        C349   1.399       .  A
C348        H353   1.083       .  S
C349        C350   1.403   1_554  A
C350        F354   1.358       .  S
C351        C356   1.402       .  A
C351        C360   1.401   1_556  A
C356        C357   1.395       .  A
C356        F361   1.358       .  S
C357        C358   1.411       .  A
C357        H362   1.083       .  S
C358        C359   1.409   1_556  A
C359        C360   1.393       .  A
C359        F363   1.357       .  S
C360        H364   1.084       .  S
C365        C366   1.403       .  A
C365        C370   1.395       .  A
C365        H375   1.083       .  S
C366        C371   1.473       .  S
C366        C367   1.404   1_554  A
C367        C368   1.393       .  A
C367        F372   1.358       .  S
C368        C369   1.406   1_556  A
C368        H373   1.083       .  S
C369        C370   1.407       .  A
C370        F374   1.358       .  S
C371        C376   1.406   1_554  A
C371        C380   1.404       .  A
C376        C377   1.394       .  A
C376        F381   1.358       .  S
C377        C378   1.400   1_556  A
C377        H382   1.083       .  S
C378        C379   1.401       .  A
C379        C380   1.395       .  A
C379        F383   1.357       .  S
C380        H384   1.083       .  S
C385        C390   1.399       .  A
C385       C1090   1.404       .  A
C385        H395   1.083       .  S
C386        C391   1.494       .  S
C386        C387   1.405   1_565  A
C386       C1089   1.406       .  A
C387        C388   1.405       .  A
C387        F392   1.357       .  S
C388       C1093   1.409   1_545  A
C388        H393   1.082       .  S
C389        C390   1.412       .  A
C389       C1092   1.406       .  A
C390        F394   1.357       .  S
C391        C400   1.409       .  A
C391       C1100   1.403   1_565  A
C396        C397   1.398       .  A
C396       C1095   1.405       .  A
C396        F401   1.358       .  S
C397       C1102   1.411       .  A
C397        H402   1.083       .  S
C398        C399   1.412       .  A
C398       C1101   1.410   1_565  A
C399        C400   1.411       .  A
C399        F403   1.357       .  S
C400        H404   1.083       .  S
C405        C410   1.406       .  A
C405       C1110   1.408       .  A
C405        H415   1.083       .  S
C406        C411   1.482       .  S
C406        C407   1.401       .  A
C406       C1109   1.407       .  A
C407        C408   1.393       .  A
C407        F412   1.358       .  S
C408       C1113   1.413       .  A
C408        H413   1.083       .  S
C409        C410   1.410       .  A
C409       C1112   1.412       .  A
C410        F414   1.357       .  S
C411        C420   1.404       .  A
C411       C1120   1.401       .  A
C416        C417   1.398       .  A
C416       C1115   1.402   1_565  A
C416        F421   1.358       .  S
C417       C1122   1.415   1_565  A
C417        H422   1.074       .  S
C418        C419   1.412       .  A
C418       C1121   1.414       .  A
C419        C420   1.400       .  A
C419        F423   1.358       .  S
C420        H424   1.083       .  S
C425        C430   1.407       .  A
C425       C1834   1.406       .  A
C425        H435   1.083       .  S
C426        C431   1.487       .  S
C426        C427   1.403       .  A
C426       C1833   1.407       .  A
C427        C428   1.395       .  A
C427        F432   1.358       .  S
C428        C429   1.412       .  A
C428        H433   1.083       .  S
C429       C1838   1.410       .  A
C430       C1837   1.411       .  A
C430        F434   1.357       .  S
C431        C440   1.405       .  A
C431       C1844   1.409       .  A
C436        C437   1.398       .  A
C436       C1839   1.406   1_455  A
C436        F441   1.358       .  S
C437       C1846   1.405       .  A
C437        H442   1.083       .  S
C438        C439   1.405       .  A
C438       C1845   1.403       .  A
C439        C440   1.403       .  A
C439        F443   1.357       .  S
C440        H444   1.083       .  S
C445        C450   1.398       .  A
C445       C1854   1.407   1_455  A
C445        H455   1.083       .  S
C446        C451   1.487       .  S
C446        C447   1.407       .  A
C446       C1853   1.409       .  A
C447        C448   1.398       .  A
C447        F452   1.357       .  S
C448        C449   1.403       .  A
C448        H453   1.084       .  S
C449       C1858   1.402       .  A
C450       C1857   1.400       .  A
C450        F454   1.357       .  S
C451        C460   1.409       .  A
C451       C1864   1.406       .  A
C456        C457   1.397       .  A
C456       C1859   1.405       .  A
C456        F461   1.358       .  S
C457       C1866   1.406       .  A
C457        H462   1.084       .  S
C458        C459   1.404       .  A
C458       C1865   1.403       .  A
C459        C460   1.402       .  A
C459        F463   1.358       .  S
C460        H464   1.083       .  S
C465        C466   1.401       .  A
C465        C470   1.399       .  A
C465        H475   1.084       .  S
C466        C471   1.498       .  S
C466        C467   1.410       .  A
C467        C468   1.414       .  A
C467        F472   1.357       .  S
C468        C469   1.411       .  A
C468        H473   1.083       .  S
C469        C470   1.419       .  A
C470        F474   1.358       .  S
C471        C476   1.408       .  A
C471        C480   1.407       .  A
C476        C477   1.402       .  A
C476        F481   1.357       .  S
C477        C478   1.407       .  A
C477        H482   1.083       .  S
C478        C479   1.411       .  A
C479        C480   1.409       .  A
C479        F483   1.357       .  S
C480        H484   1.083       .  S
C485        C486   1.410       .  A
C485        C490   1.408       .  A
C485        H495   1.083       .  S
C486        C491   1.494       .  S
C486        C487   1.404       .  A
C487        C488   1.394       .  A
C487        F492   1.358       .  S
C488        C489   1.412       .  A
C488        H493   1.083       .  S
C489        C490   1.409       .  A
C490        F494   1.357       .  S
C491        C496   1.405       .  A
C491        C500   1.406       .  A
C496        C497   1.402       .  A
C496        F501   1.357       .  S
C497        C498   1.414       .  A
C497        H502   1.076       .  S
C498        C499   1.413       .  A
C499        C500   1.400       .  A
C499        F503   1.358       .  S
C500        H504   1.083       .  S
C505        C506   1.408       .  A
C505        C510   1.400       .  A
C505        H515   1.083       .  S
C506        C511   1.491       .  S
C506        C507   1.409       .  A
C507        C508   1.400       .  A
C507        F512   1.357       .  S
C508        C509   1.405       .  A
C508        H513   1.084       .  S
C509        C510   1.404       .  A
C510        F514   1.358       .  S
C511        C516   1.409       .  A
C511        C520   1.408       .  A
C516        C517   1.400       .  A
C516        F521   1.357       .  S
C517        C518   1.403       .  A
C517        H522   1.083       .  S
C518        C519   1.403       .  A
C519        C520   1.401       .  A
C519        F523   1.357       .  S
C520        H524   1.083       .  S
C525        C526   1.403       .  A
C525        C530   1.401       .  A
C525        H535   1.083       .  S
C526        C531   1.471       .  S
C526        C527   1.400       .  A
C527        C528   1.394       .  A
C527        F532   1.358       .  S
C528        C529   1.407       .  A
C528        H533   1.083       .  S
C529        C530   1.407       .  A
C530        F534   1.357       .  S
C531        C536   1.400       .  A
C531        C540   1.403       .  A
C536        C537   1.395       .  A
C536        F541   1.358       .  S
C537        C538   1.407       .  A
C537        H542   1.083       .  S
C538        C539   1.408       .  A
C539        C540   1.400       .  A
C539        F543   1.358       .  S
C540        H544   1.083       .  S
C545        C546   1.400       .  A
C545        C550   1.392       .  A
C545        H555   1.084       .  S
C546        C551   1.471       .  S
C546        C547   1.403       .  A
C547        C548   1.395       .  A
C547        F552   1.357       .  S
C548        C549   1.407       .  A
C548        H553   1.083       .  S
C549        C550   1.412       .  A
C550        F554   1.358       .  S
C551        C556   1.405       .  A
C551        C560   1.403       .  A
C556        C557   1.394       .  A
C556        F561   1.357       .  S
C557        C558   1.400       .  A
C557        H562   1.083       .  S
C558        C559   1.404       .  A
C559        C560   1.395       .  A
C559        F563   1.358       .  S
C560        H564   1.083       .  S
C565        C566   1.402       .  A
C565        C570   1.394       .  A
C565        H575   1.083       .  S
C566        C571   1.479       .  S
C566        C567   1.407       .  A
C567        C568   1.399       .  A
C567        F572   1.357       .  S
C568        C569   1.405       .  A
C568        H573   1.083       .  S
C569        C570   1.408       .  A
C570        F574   1.358       .  S
C571        C576   1.407       .  A
C571        C580   1.406       .  A
C576        C577   1.397       .  A
C576        F581   1.357       .  S
C577        C578   1.401       .  A
C577        H582   1.083       .  S
C578        C579   1.403       .  A
C579        C580   1.396       .  A
C579        F583   1.358       .  S
C580        H584   1.083       .  S
C585        C586   1.404       .  A
C585        C590   1.397       .  A
C585        H595   1.083       .  S
C586        C591   1.476       .  S
C586        C587   1.407       .  A
C587        C588   1.395       .  A
C587        F592   1.358       .  S
C588        C589   1.400       .  A
C588        H593   1.083       .  S
C589        C590   1.404       .  A
C590        F594   1.357       .  S
C591        C596   1.405       .  A
C591        C600   1.401       .  A
C596        C597   1.398       .  A
C596        F601   1.357       .  S
C597        C598   1.407       .  A
C597        H602   1.083       .  S
C598        C599   1.411       .  A
C599        C600   1.393       .  A
C599        F603   1.358       .  S
C600        H604   1.083       .  S
C605        C606   1.402       .  A
C605        C610   1.394       .  A
C605        H615   1.084       .  S
C606        C611   1.471       .  S
C606        C607   1.403       .  A
C607        C608   1.392       .  A
C607        F612   1.357       .  S
C608        C609   1.407       .  A
C608        H613   1.083       .  S
C609        C610   1.412       .  A
C610        F614   1.358       .  S
C611        C616   1.405       .  A
C611        C620   1.404       .  A
C616        C617   1.392       .  A
C616        F621   1.357       .  S
C617        C618   1.402       .  A
C617        H622   1.084       .  S
C618        C619   1.404       .  A
C619        C620   1.394       .  A
C619        F623   1.357       .  S
C620        H624   1.083       .  S
C625        C626   1.406       .  A
C625        C630   1.405       .  A
C625        H635   1.083       .  S
C626        C631   1.478       .  S
C626        C627   1.400       .  A
C627        C628   1.391       .  A
C627        F632   1.358       .  S
C628        C629   1.409       .  A
C628        H633   1.083       .  S
C629        C630   1.409       .  A
C630        F634   1.357       .  S
C631        C636   1.399       .  A
C631        C640   1.402       .  A
C636        C637   1.398       .  A
C636        F641   1.358       .  S
C637        C638   1.415       .  A
C637        H642   1.077       .  S
C638        C639   1.413       .  A
C639        C640   1.399       .  A
C639        F643   1.357       .  S
C640        H644   1.083       .  S
C645        C646   1.400       .  A
C645        C650   1.390       .  A
C645        H655   1.084       .  S
C646        C651   1.486       .  S
C646        C647   1.409       .  A
C647        C648   1.404       .  A
C647        F652   1.357       .  S
C648        C649   1.407       .  A
C648        H653   1.083       .  S
C649        C650   1.415       .  A
C650        F654   1.358       .  S
C651        C656   1.409       .  A
C651        C660   1.403       .  A
C656        C657   1.399       .  A
C656        F661   1.358       .  S
C657        C658   1.403       .  A
C657        H662   1.083       .  S
C658        C659   1.408       .  A
C659        C660   1.401       .  A
C659        F663   1.352       .  S
C660        H664   1.083       .  S
C665        C666   1.408       .  A
C665        C670   1.405       .  A
C665        H675   1.083       .  S
C666        C671   1.497       .  S
C666        C667   1.408       .  A
C667        C668   1.405       .  A
C667        F672   1.357       .  S
C668        C669   1.410       .  A
C668        H673   1.083       .  S
C669        C670   1.407       .  A
C670        F674   1.357       .  S
C671        C676   1.409       .  A
C671        C680   1.403       .  A
C676        C677   1.407       .  A
C676        F681   1.357       .  S
C677        C678   1.408       .  A
C677        H682   1.079       .  S
C678        C679   1.415       .  A
C679        C680   1.401       .  A
C679        F683   1.357       .  S
C680        H684   1.083       .  S
C685        C686   1.403       .  A
C685        C690   1.399       .  A
C685        H695   1.083       .  S
C686        C691   1.497       .  S
C686        C687   1.412       .  A
C687        C688   1.409       .  A
C687        F692   1.357       .  S
C688        C689   1.408       .  A
C688        H693   1.083       .  S
C689        C690   1.412       .  A
C690        F694   1.358       .  S
C691        C696   1.412       .  A
C691        C700   1.404       .  A
C696        C697   1.404       .  A
C696        F701   1.357       .  S
C697        C698   1.403       .  A
C697        H702   1.083       .  S
C698        C699   1.414       .  A
C699        C700   1.401       .  A
C699        F703   1.358       .  S
C700        H704   1.083       .  S
O705        C716   1.297       .  A
O705       Eu741   2.489       .  S
O706        C717   1.298       .  A
O706       Eu740   2.494       .  S
O707        C718   1.291       .  A
O707       Eu713   2.454       .  S
O708        C719   1.291       .  A
O708       Eu713   2.455       .  S
O709        C719   1.291       .  A
O709       Eu743   2.458       .  S
O710        C718   1.286       .  A
O710       Eu742   2.433       .  S
O711        C717   1.292       .  A
O711       Eu713   2.453       .  S
O712        C716   1.293       .  A
O712       Eu713   2.464       .  S
Eu713       O723   2.356       .  S
Eu713       O715   2.346       .  S
Eu713       O714   2.344       .  S
Eu713       O721   2.356       .  S
O714       Eu743   2.340       .  S
O714       Eu740   2.363       .  S
O715       Eu741   2.366       .  S
O715       Eu742   2.344       .  S
C716       C1393   1.492       .  S
C717       C1213   1.492       .  S
C718       C1253   1.481       .  S
C719       C1273   1.486       .  S
H720        O721   0.959       .  S
O721       Eu742   2.346       .  S
O721       Eu740   2.370       .  S
H722        O723   0.962       .  S
O723       Eu741   2.368       .  S
O723       Eu743   2.345       .  S
O724        C747   1.297       .  A
O724       Eu740   2.492       .  S
O725        C748   1.296       .  A
O725       Eu741   2.487       .  S
O726        C749   1.286       .  A
O726       Eu742   2.431       .  S
O727        C750   1.286       .  A
O727       Eu743   2.422       .  S
O728        C751   1.287       .  A
O728       Eu743   2.426       .  S
O729        C752   1.288       .  A
O729       Eu742   2.438       .  S
O730        C753   1.288       .  A
O730       Eu744   2.439       .  S
O731        C754   1.288       .  A
O731       Eu744   2.445       .  S
O732        C753   1.287       .  A
O732       Eu742   2.434       .  S
O733        C754   1.290       .  A
O733       Eu743   2.454       .  S
O734        C749   1.302       .  A
O734       Eu740   2.523       .  S
O735        C752   1.297       .  A
O735       Eu741   2.493       .  S
O736        C751   1.298       .  A
O736       Eu741   2.500       .  S
O737        C750   1.300       .  A
O737       Eu740   2.512       .  S
O738        C747   1.289       .  A
O738       Eu744   2.439       .  S
O739        C748   1.291       .  A
O739       Eu744   2.453       .  S
Eu740       O758   2.375       .  S
Eu740       O746   2.365       .  S
Eu741       O745   2.358       .  S
Eu741       O756   2.366       .  S
Eu742       O756   2.346       .  S
Eu742       O746   2.342       .  S
Eu743       O745   2.338       .  S
Eu743       O758   2.352       .  S
Eu744       O745   2.343       .  S
Eu744       O756   2.350       .  S
Eu744       O758   2.360       .  S
Eu744       O746   2.348       .  S
C747       C1242   1.491       .  S
C748       C1373   1.487       .  S
C749       C1173   1.504       .  S
C750       C1193   1.497       .  S
C751       C1333   1.493       .  S
C752       C1353   1.491       .  S
C753       C1313   1.475       .  S
C754       C1302   1.485       .  S
H755        O756   0.957       .  S
H757        O758   0.962       .  S
N759        C764   1.349   1_545  A
N759        H791   1.039       .  S
N760       C2175   1.349       .  A
N760        C768   1.349       .  A
N761        C766   1.351   1_545  A
N761        H792   1.039       .  S
N762       C2177   1.350       .  A
N762        C770   1.351       .  A
C763        C771   1.388       .  A
C763        C779   1.412       .  A
C764        C780   1.410       .  A
C764        C772   1.386       .  A
C765        C773   1.388       .  A
C765        C782   1.412       .  A
C766        C781   1.413       .  A
C766        C774   1.388       .  A
C767       N2168   1.350       .  A
C767        C779   1.413       .  A
C767        C775   1.387       .  A
C768        C782   1.410       .  A
C768        C776   1.386       .  A
C769       N2170   1.352       .  A
C769        C777   1.386       .  A
C769        C780   1.414       .  A
C770        C778   1.387       .  A
C770        C781   1.413       .  A
C771        H783   1.082       .  S
C772        H784   1.082       .  S
C773        H785   1.082       .  S
C774        H786   1.082       .  S
C775       C2184   1.376       .  A
C775        H787   1.082       .  S
C776       C2183   1.376       .  A
C776        H788   1.082       .  S
C777       C2186   1.375   1_455  A
C777        H789   1.082       .  S
C778       C2185   1.374       .  A
C778        H790   1.082       .  S
C779       C1282   1.480       .  S
C780       C1293   1.485       .  S
C781       C1322   1.486       .  S
C782       C1262   1.479       .  S
O793        C804   1.297       .  A
O793       Eu829   2.491       .  S
O794        C805   1.298       .  A
O794       Eu828   2.495       .  S
O795        C806   1.291       .  A
O795      Eu2209   2.458   1_455  S
O796        C807   1.290       .  A
O796       Eu801   2.455       .  S
O797        C807   1.288       .  A
O797       Eu831   2.443   1_556  S
O798        C806   1.288       .  A
O798       Eu830   2.441       .  S
O799        C805   1.286       .  A
O799       Eu801   2.430   1_554  S
O800        C804   1.287       .  A
O800       Eu801   2.431       .  S
Eu801      O2203   2.452       .  S
Eu801       O811   2.345       .  S
Eu801      O2211   2.347       .  S
Eu801       O802   2.342   1_556  S
Eu801      O2217   2.353   1_556  S
O802       Eu831   2.341       .  S
O802       Eu828   2.373       .  S
O803      Eu2209   2.348   1_455  S
O803      Eu2237   2.368   1_455  S
O803       Eu830   2.339       .  S
C804       C1162   1.476       .  S
C805        C982   1.492       .  S
C806       C1022   1.484       .  S
C807       C1042   1.485       .  S
H808        O809   0.976       .  S
O809      Eu2209   2.351   1_454  S
O809       Eu830   2.343   1_554  S
O809      Eu2236   2.371   1_455  S
H810        O811   0.968       .  S
O811       Eu829   2.366       .  S
O811       Eu831   2.338   1_556  S
O812        C835   1.298       .  A
O813        C836   1.297       .  A
O814        C837   1.286       .  A
O814       Eu830   2.427   1_554  S
O815        C838   1.289       .  A
O815       Eu831   2.437       .  S
O816       Eu831   2.448   1_556  S
O817       Eu830   2.426       .  S
O818        C841   1.291       .  A
O818      Eu2240   2.459   1_455  S
O819        C842   1.290       .  A
O819       Eu832   2.455   1_556  S
O820        C841   1.288   1_556  A
O821        C842   1.286       .  A
O822        C837   1.294       .  A
O822      Eu2236   2.480   1_455  S
O823        C840   1.298       .  A
O823      Eu1533   2.501   1_455  S
O824        C839   1.300       .  A
O825        C838   1.293       .  A
O825       Eu828   2.471       .  S
O826        C835   1.288       .  A
O826       Eu832   2.433       .  S
O827        C836   1.287       .  A
O827       Eu832   2.423   1_556  S
Eu828      O2230   2.489       .  S
Eu828      O2217   2.367       .  S
Eu828      O1538   2.350   1_565  S
Eu829      O1527   2.503       .  S
Eu829      O2211   2.364       .  S
Eu829      O1548   2.364   1_565  S
Eu832      O2226   2.454       .  S
Eu832       O833   2.341   1_554  S
Eu832      O2252   2.346   1_554  S
Eu832       O846   2.348       .  S
Eu832      O2242   2.341       .  S
O834      Eu1532   2.355   1_455  S
O834      Eu2240   2.345   1_455  S
C835       C1002   1.488       .  S
C836       C1133   1.487       .  S
C837        C933   1.473       .  S
C838        C962   1.483       .  S
C839       C1102   1.499       .  S
C840       C1113   1.492       .  S
C841       C1073   1.474   1_554  S
C842       C1062   1.479       .  S
H843        O844   0.971       .  S
O844      Eu1533   2.358   1_455  S
O844      Eu2240   2.351   1_456  S
H845        O846   0.969       .  S
N847        C852   1.351   1_554  A
N847        C851   1.351   1_554  A
N847        H879   1.039       .  S
N848        C855   1.348       .  A
N848        C856   1.348       .  A
N849        C854   1.352       .  A
N849        C853   1.353       .  A
N849        H880   1.036       .  S
N850        C857   1.351       .  A
N850        C858   1.350       .  A
C851        C859   1.387       .  A
C851        C867   1.410   1_556  A
C852        C868   1.409   1_556  A
C852        C860   1.386       .  A
C853        C861   1.387   1_554  A
C853        C870   1.415       .  A
C854        C869   1.415       .  A
C854        C862   1.387   1_554  A
C855        C867   1.407       .  A
C855        C863   1.386       .  A
C856        C870   1.409       .  A
C856        C864   1.387       .  A
C857        C865   1.386       .  A
C857        C868   1.411       .  A
C858        C866   1.387       .  A
C858        C869   1.412       .  A
C859        C860   1.372       .  A
C859        H871   1.082       .  S
C860        H872   1.082       .  S
C861        C862   1.373       .  A
C861        H873   1.082       .  S
C862        H874   1.082       .  S
C863        C864   1.372       .  A
C863        H875   1.082       .  S
C864        H876   1.082       .  S
C865        C866   1.371       .  A
C865        H877   1.082       .  S
C866        H878   1.082       .  S
C867       C1053   1.473   1_554  S
C868       C1033   1.480   1_554  S
C869       C1013   1.481       .  S
C870       C1082   1.477       .  S
C881        C882   1.538       .  S
C881       C2295   1.543       .  S
C881        C885   1.540       .  S
C881       C1342   1.540       .  S
C882        H889   1.086       .  S
C882       C2291   1.366       .  D
C883        C884   1.541       .  S
C883       C2290   1.362       .  D
C883        C993   1.476       .  S
C884        C888   1.543       .  S
C884        C886   1.537       .  S
C884        H890   1.110       .  S
C885        H891   1.082       .  S
C885       C2294   1.361       .  D
C886       C2293   1.362       .  D
C886        C973   1.476       .  S
C887       C2289   1.543       .  S
C887        H892   1.086       .  S
C887        C888   1.372       .  D
C888       C1362   1.494       .  S
C893        C894   1.531       .  S
C893        C899   1.542       .  S
C893        C942   1.527       .  S
C894        H901   1.085       .  S
C894        C895   1.367       .  D
C895        C896   1.551       .  S
C895       C1382   1.499       .  S
C896        C900   1.535       .  S
C896        H902   1.109       .  S
C897        H903   1.086       .  S
C897        C898   1.370       .  D
C898       C1402   1.499       .  S
C899        H904   1.082       .  S
C899        C900   1.366       .  D
C900        C953   1.470       .  S
C905        C906   1.536       .  S
C905       C2319   1.541       .  S
C905        C909   1.547       .  S
C905       C1202   1.539       .  S
C906        H913   1.086       .  S
C906       C2315   1.363       .  D
C907        C908   1.541       .  S
C907       C2314   1.365       .  D
C907       C1153   1.483       .  S
C908        C912   1.543       .  S
C908        C910   1.537       .  S
C908        H914   1.110       .  S
C909        H915   1.082       .  S
C909       C2318   1.366       .  D
C910       C2317   1.362       .  D
C910       C1142   1.476       .  S
C911       C2313   1.543       .  S
C911        H916   1.086       .  S
C911        C912   1.371       .  D
C912       C1182   1.492       .  S
C917        C923   1.544   1_545  S
C917        C921   1.544   1_545  S
C917       C1122   1.539       .  S
C918        H925   1.085       .  S
C918        C919   1.368       .  D
C919       C1222   1.499       .  S
C920        C924   1.546   1_545  S
C920        C922   1.535   1_545  S
C920        H926   1.110       .  S
C921        H927   1.080       .  S
C921        C922   1.360       .  D
C922       C1233   1.478       .  S
C923        H928   1.085       .  S
C923        C924   1.374       .  D
C924       C1093   1.502       .  S
C929        C934   1.391       .  A
C929        H939   1.083       .  S
C930        C935   1.483       .  S
C930        C931   1.411       .  A
C931        C932   1.403       .  A
C931        F936   1.357       .  S
C932        C933   1.403       .  A
C932        H937   1.083       .  S
C934        F938   1.359       .  S
C935        C944   1.399       .  A
C940        C941   1.398       .  A
C940        F945   1.358       .  S
C941        H946   1.077       .  S
C942        C943   1.413       .  A
C943        C944   1.394       .  A
C943        F947   1.358   1_565  S
C944        H948   1.083   1_565  S
C949        C954   1.397       .  A
C949        H959   1.084       .  S
C950        C955   1.476       .  S
C950        C951   1.406       .  A
C951        C952   1.400       .  A
C951        F956   1.357       .  S
C952        C953   1.402       .  A
C952        H957   1.082       .  S
C954        F958   1.358       .  S
C955        C960   1.402       .  A
C955        C964   1.405       .  A
C960        C961   1.388       .  A
C961        C962   1.407       .  A
C962        C963   1.411       .  A
C963        C964   1.403       .  A
C963        F967   1.357       .  S
C964        H968   1.083       .  S
C969       C2378   1.404   1_455  A
C969        C974   1.395       .  A
C969        H979   1.084       .  S
C970        C975   1.480       .  S
C970       C2377   1.404       .  A
C970        C971   1.406       .  A
C971        C972   1.403       .  A
C971        F976   1.357       .  S
C972        C973   1.403       .  A
C972        H977   1.083       .  S
C973       C2382   1.403       .  A
C974       C2381   1.404       .  A
C974        F978   1.358       .  S
C975       C2388   1.407       .  A
C975        C984   1.397       .  A
C980       C2383   1.407       .  A
C980        C981   1.407       .  A
C980        F985   1.357       .  S
C981       C2390   1.410       .  A
C981        H986   1.083       .  S
C982       C2389   1.408       .  A
C982        C983   1.417       .  A
C983        C984   1.393       .  A
C983        F987   1.358       .  S
C984        H988   1.084       .  S
C989        C990   1.407       .  A
C989        C994   1.401       .  A
C989        H999   1.083       .  S
C990        C995   1.485       .  S
C990       C2399   1.406       .  A
C991       C2398   1.410       .  A
C991        C992   1.404       .  A
C991        F996   1.357       .  S
C992       C2401   1.403   1_655  A
C992        H997   1.083       .  S
C993       C2400   1.401       .  A
C993        C994   1.404       .  A
C994        F998   1.358       .  S
C995       C1000   1.403       .  A
C995       C2412   1.407       .  A
C1000      C1001   1.396       .  A
C1000      F1005   1.358       .  S
C1001      C1002   1.409       .  A
C1001      H1006   1.083       .  S
C1002      C2411   1.409       .  A
C1003      C2410   1.409   1_455  A
C1003      C1004   1.408       .  A
C1003      F1007   1.357       .  S
C1004      C2403   1.410   1_455  A
C1004      H1008   1.083       .  S
C1009      C1010   1.405   1_556  A
C1009      C1014   1.397       .  A
C1009      H1019   1.083       .  S
C1010      C1015   1.479   1_554  S
C1010      C1011   1.407       .  A
C1011      C1012   1.395       .  A
C1011      F1016   1.357       .  S
C1012      C1013   1.401       .  A
C1012      H1017   1.083       .  S
C1013      C1014   1.404   1_554  A
C1014      F1018   1.358       .  S
C1015      C1020   1.404       .  A
C1015      C1024   1.403   1_556  A
C1020      C1021   1.396       .  A
C1020      F1025   1.358       .  S
C1021      C1022   1.409       .  A
C1021      H1026   1.083       .  S
C1022      C1023   1.409   1_556  A
C1023      C1024   1.396       .  A
C1023      F1027   1.357       .  S
C1024      H1028   1.083       .  S
C1029      C1030   1.404   1_554  A
C1029      C1034   1.397       .  A
C1029      H1039   1.083       .  S
C1030      C1035   1.476       .  S
C1030      C1031   1.405       .  A
C1031      C1032   1.395       .  A
C1031      F1036   1.357       .  S
C1032      C1033   1.401       .  A
C1032      H1037   1.083       .  S
C1033      C1034   1.405   1_556  A
C1034      F1038   1.358       .  S
C1035      C1040   1.404       .  A
C1035      C1044   1.401       .  A
C1040      C1041   1.395       .  A
C1040      F1045   1.358       .  S
C1041      C1042   1.409       .  A
C1041      H1046   1.083       .  S
C1042      C1043   1.411       .  A
C1043      C1044   1.397       .  A
C1043      F1047   1.357       .  S
C1044      H1048   1.083       .  S
C1049      C1050   1.404       .  A
C1049      C1054   1.396       .  A
C1049      H1059   1.083       .  S
C1050      C1055   1.471       .  S
C1050      C1051   1.405   1_556  A
C1051      C1052   1.392       .  A
C1051      F1056   1.358       .  S
C1052      C1053   1.399   1_554  A
C1052      H1057   1.083       .  S
C1053      C1054   1.403       .  A
C1054      F1058   1.357       .  S
C1055      C1060   1.402       .  A
C1055      C1064   1.401       .  A
C1060      C1061   1.394       .  A
C1060      F1065   1.358       .  S
C1061      C1062   1.409       .  A
C1061      H1066   1.083       .  S
C1062      C1063   1.409       .  A
C1063      C1064   1.393       .  A
C1063      F1067   1.357   1_556  S
C1064      H1068   1.083       .  S
C1069      C1070   1.403       .  A
C1069      C1074   1.396       .  A
C1069      H1079   1.083       .  S
C1070      C1075   1.476       .  S
C1070      C1071   1.405   1_554  A
C1071      C1072   1.396       .  A
C1071      F1076   1.358       .  S
C1072      C1073   1.406       .  A
C1072      H1077   1.084       .  S
C1073      C1074   1.406   1_556  A
C1074      F1078   1.357       .  S
C1075      C1080   1.406   1_554  A
C1075      C1084   1.405       .  A
C1080      C1081   1.395       .  A
C1080      F1085   1.357       .  S
C1081      C1082   1.401   1_556  A
C1081      H1086   1.083       .  S
C1082      C1083   1.402       .  A
C1083      C1084   1.396       .  A
C1083      F1087   1.357       .  S
C1084      H1088   1.083       .  S
C1089      C1094   1.403       .  A
C1089      H1099   1.083       .  S
C1090      C1095   1.491       .  S
C1090      C1091   1.407       .  A
C1091      C1092   1.405       .  A
C1091      F1096   1.357       .  S
C1092      H1097   1.079       .  S
C1093      C1094   1.412       .  A
C1094      F1098   1.357       .  S
C1095      C1104   1.407       .  A
C1100      C1101   1.397       .  A
C1100      F1105   1.358       .  S
C1101      H1106   1.083       .  S
C1102      C1103   1.411       .  A
C1103      C1104   1.409       .  A
C1103      F1107   1.356       .  S
C1104      H1108   1.083       .  S
C1109      C1114   1.405       .  A
C1109      H1119   1.083       .  S
C1110      C1115   1.488       .  S
C1110      C1111   1.402       .  A
C1111      C1112   1.394       .  A
C1111      F1116   1.358       .  S
C1112      H1117   1.083       .  S
C1113      C1114   1.409       .  A
C1114      F1118   1.357       .  S
C1115      C1124   1.405       .  A
C1120      C1121   1.396       .  A
C1120      F1125   1.358       .  S
C1121      H1126   1.077       .  S
C1122      C1123   1.413       .  A
C1123      C1124   1.401       .  A
C1123      F1127   1.358       .  S
C1124      H1128   1.083       .  S
C1129      C2538   1.405       .  A
C1129      C1134   1.403       .  A
C1129      H1139   1.083       .  S
C1130      C1135   1.476       .  S
C1130      C2537   1.405       .  A
C1130      C1131   1.399       .  A
C1131      C1132   1.392       .  A
C1131      F1136   1.358       .  S
C1132      C1133   1.411       .  A
C1132      H1137   1.083       .  S
C1133      C2542   1.409       .  A
C1134      C2541   1.408       .  A
C1134      F1138   1.357       .  S
C1135      C2548   1.406       .  A
C1135      C1144   1.403       .  A
C1140      C2543   1.408   1_455  A
C1140      C1141   1.401       .  A
C1140      F1145   1.358       .  S
C1141      C2550   1.402       .  A
C1141      H1146   1.083       .  S
C1142      C2549   1.402       .  A
C1142      C1143   1.404       .  A
C1143      C1144   1.400       .  A
C1143      F1147   1.357       .  S
C1144      H1148   1.083       .  S
C1149      C2558   1.409   1_455  A
C1149      C1154   1.402       .  A
C1149      H1159   1.083       .  S
C1150      C1155   1.501       .  S
C1150      C2557   1.412       .  A
C1150      C1151   1.413       .  A
C1151      C1152   1.398       .  A
C1151      F1156   1.357       .  S
C1152      C1153   1.402       .  A
C1152      H1157   1.083       .  S
C1153      C2562   1.403       .  A
C1154      C2561   1.403       .  A
C1154      F1158   1.358       .  S
C1155      C2568   1.413       .  A
C1155      C1164   1.412       .  A
C1160      C2563   1.405       .  A
C1160      C1161   1.397       .  A
C1160      F1165   1.358       .  S
C1161      C2570   1.409       .  A
C1161      H1166   1.083       .  S
C1162      C2569   1.404       .  A
C1162      C1163   1.401       .  A
C1163      C1164   1.400       .  A
C1163      F1167   1.357       .  S
C1164      H1168   1.081       .  S
C1169      C1170   1.398       .  A
C1169      C1174   1.396       .  A
C1169      H1179   1.084       .  S
C1170      C1175   1.491       .  S
C1170      C1171   1.409       .  A
C1171      C1172   1.412       .  A
C1171      F1176   1.357       .  S
C1172      C1173   1.410       .  A
C1172      H1177   1.083       .  S
C1173      C1174   1.419       .  A
C1174      F1178   1.358       .  S
C1175      C1180   1.409       .  A
C1175      C1184   1.404       .  A
C1180      C1181   1.401       .  A
C1180      F1185   1.358       .  S
C1181      C1182   1.406       .  A
C1181      H1186   1.083       .  S
C1182      C1183   1.409       .  A
C1183      C1184   1.404       .  A
C1183      F1187   1.357       .  S
C1184      H1188   1.083       .  S
C1189      C1190   1.408       .  A
C1189      C1194   1.406       .  A
C1189      H1199   1.083       .  S
C1190      C1195   1.490       .  S
C1190      C1191   1.403       .  A
C1191      C1192   1.397       .  A
C1191      F1196   1.358       .  S
C1192      C1193   1.414       .  A
C1192      H1197   1.083       .  S
C1193      C1194   1.409       .  A
C1194      F1198   1.356       .  S
C1195      C1200   1.403       .  A
C1195      C1204   1.404       .  A
C1200      C1201   1.402       .  A
C1200      F1205   1.357       .  S
C1201      C1202   1.413       .  A
C1201      H1206   1.077       .  S
C1202      C1203   1.415       .  A
C1203      C1204   1.402       .  A
C1203      F1207   1.358       .  S
C1204      H1208   1.083       .  S
C1209      C1210   1.408       .  A
C1209      C1214   1.408       .  A
C1209      H1219   1.083       .  S
C1210      C1215   1.485       .  S
C1210      C1211   1.400       .  A
C1211      C1212   1.397       .  A
C1211      F1216   1.357       .  S
C1212      C1213   1.410       .  A
C1212      H1217   1.083       .  S
C1213      C1214   1.411       .  A
C1214      F1218   1.358       .  S
C1215      C1220   1.407       .  A
C1215      C1224   1.400       .  A
C1220      C1221   1.406       .  A
C1220      F1225   1.357       .  S
C1221      C1222   1.406       .  A
C1221      H1226   1.079       .  S
C1222      C1223   1.414       .  A
C1223      C1224   1.399       .  A
C1223      F1227   1.357       .  S
C1224      H1228   1.083       .  S
C1229      C1230   1.403       .  A
C1229      C1234   1.401       .  A
C1229      H1239   1.083       .  S
C1230      C1235   1.480       .  S
C1230      C1231   1.407       .  A
C1231      C1232   1.399       .  A
C1231      F1236   1.358       .  S
C1232      C1233   1.403       .  A
C1232      H1237   1.084       .  S
C1233      C1234   1.404       .  A
C1234      F1238   1.357       .  S
C1235      C1240   1.401       .  A
C1235      C1244   1.405       .  A
C1240      C1241   1.395       .  A
C1240      F1245   1.358       .  S
C1241      C1242   1.411       .  A
C1241      H1246   1.083       .  S
C1242      C1243   1.410       .  A
C1243      C1244   1.404       .  A
C1243      F1247   1.357       .  S
C1244      H1248   1.083       .  S
C1249      C1250   1.400       .  A
C1249      C1254   1.393       .  A
C1249      H1259   1.084       .  S
C1250      C1255   1.474       .  S
C1250      C1251   1.405       .  A
C1251      C1252   1.396       .  A
C1251      F1256   1.357       .  S
C1252      C1253   1.407       .  A
C1252      H1257   1.083       .  S
C1253      C1254   1.412       .  A
C1254      F1258   1.357       .  S
C1255      C1260   1.406       .  A
C1255      C1264   1.403       .  A
C1260      C1261   1.396       .  A
C1260      F1265   1.358       .  S
C1261      C1262   1.401       .  A
C1261      H1266   1.083       .  S
C1262      C1263   1.403       .  A
C1263      C1264   1.396       .  A
C1263      F1267   1.357       .  S
C1264      H1268   1.083       .  S
C1269      C1270   1.402       .  A
C1269      C1274   1.398       .  A
C1269      H1279   1.083       .  S
C1270      C1275   1.479       .  S
C1270      C1271   1.404       .  A
C1271      C1272   1.399       .  A
C1271      F1276   1.358       .  S
C1272      C1273   1.409       .  A
C1272      H1277   1.083       .  S
C1273      C1274   1.411       .  A
C1274      F1278   1.357       .  S
C1275      C1280   1.407       .  A
C1275      C1284   1.405       .  A
C1280      C1281   1.398       .  A
C1280      F1285   1.357       .  S
C1281      C1282   1.401       .  A
C1281      H1286   1.083       .  S
C1282      C1283   1.403       .  A
C1283      C1284   1.397       .  A
C1283      F1287   1.357       .  S
C1284      H1288   1.083       .  S
C1289      C1290   1.406       .  A
C1289      C1294   1.399       .  A
C1289      H1299   1.083       .  S
C1290      C1295   1.486       .  S
C1290      C1291   1.410       .  A
C1291      C1292   1.395       .  A
C1291      F1296   1.357       .  S
C1292      C1293   1.399       .  A
C1292      H1297   1.083       .  S
C1293      C1294   1.407       .  A
C1294      F1298   1.358       .  S
C1295      C1300   1.408       .  A
C1295      C1304   1.403       .  A
C1300      C1301   1.400       .  A
C1300      F1305   1.358       .  S
C1301      C1302   1.409       .  A
C1301      H1306   1.083       .  S
C1302      C1303   1.409       .  A
C1303      C1304   1.392       .  A
C1303      F1307   1.357       .  S
C1304      H1308   1.083       .  S
C1309      C1310   1.401       .  A
C1309      C1314   1.392       .  A
C1309      H1319   1.084       .  S
C1310      C1315   1.471       .  S
C1310      C1311   1.404       .  A
C1311      C1312   1.394       .  A
C1311      F1316   1.357       .  S
C1312      C1313   1.406       .  A
C1312      H1317   1.083       .  S
C1313      C1314   1.410       .  A
C1314      F1318   1.357       .  S
C1315      C1320   1.403       .  A
C1315      C1324   1.403       .  A
C1320      C1321   1.394       .  A
C1320      F1325   1.358       .  S
C1321      C1322   1.406       .  A
C1321      H1326   1.083       .  S
C1322      C1323   1.406       .  A
C1323      C1324   1.395       .  A
C1323      F1327   1.357       .  S
C1324      H1328   1.083       .  S
C1329      C1330   1.408       .  A
C1329      C1334   1.408       .  A
C1329      H1339   1.083       .  S
C1330      C1335   1.483       .  S
C1330      C1331   1.400       .  A
C1331      C1332   1.393       .  A
C1331      F1336   1.358       .  S
C1332      C1333   1.412       .  A
C1332      H1337   1.083       .  S
C1333      C1334   1.410       .  A
C1334      F1338   1.357       .  S
C1335      C1340   1.399       .  A
C1335      C1344   1.404       .  A
C1340      C1341   1.399       .  A
C1340      F1345   1.358       .  S
C1341      C1342   1.417       .  A
C1341      H1346   1.077       .  S
C1342      C1343   1.413       .  A
C1343      C1344   1.401       .  A
C1343      F1347   1.357       .  S
C1344      H1348   1.083       .  S
C1349      C1350   1.400       .  A
C1349      C1354   1.395       .  A
C1349      H1359   1.084       .  S
C1350      C1355   1.485       .  S
C1350      C1351   1.408       .  A
C1351      C1352   1.407       .  A
C1351      F1356   1.357       .  S
C1352      C1353   1.408       .  A
C1352      H1357   1.083       .  S
C1353      C1354   1.414       .  A
C1354      F1358   1.358       .  S
C1355      C1360   1.406       .  A
C1355      C1364   1.404       .  A
C1360      C1361   1.398       .  A
C1360      F1365   1.358       .  S
C1361      C1362   1.406       .  A
C1361      H1366   1.083       .  S
C1362      C1363   1.410       .  A
C1363      C1364   1.405       .  A
C1363      F1367   1.356       .  S
C1364      H1368   1.083       .  S
C1369      C1370   1.407       .  A
C1369      C1374   1.403       .  A
C1369      H1379   1.083       .  S
C1370      C1375   1.489       .  S
C1370      C1371   1.406       .  A
C1371      C1372   1.401       .  A
C1371      F1376   1.357       .  S
C1372      C1373   1.408       .  A
C1372      H1377   1.083       .  S
C1373      C1374   1.408       .  A
C1374      F1378   1.357       .  S
C1375      C1380   1.407       .  A
C1375      C1384   1.402       .  A
C1380      C1381   1.404       .  A
C1380      F1385   1.357       .  S
C1381      C1382   1.407       .  A
C1381      H1386   1.081       .  S
C1382      C1383   1.414       .  A
C1383      C1384   1.399       .  A
C1383      F1387   1.357       .  S
C1384      H1388   1.083       .  S
C1389      C1390   1.403       .  A
C1389      C1394   1.399       .  A
C1389      H1399   1.083       .  S
C1390      C1395   1.494       .  S
C1390      C1391   1.411       .  A
C1391      C1392   1.409       .  A
C1391      F1396   1.357       .  S
C1392      C1393   1.408       .  A
C1392      H1397   1.083       .  S
C1393      C1394   1.410       .  A
C1394      F1398   1.358       .  S
C1395      C1400   1.410       .  A
C1395      C1404   1.403       .  A
C1400      C1401   1.406       .  A
C1400      F1405   1.357       .  S
C1401      C1402   1.405       .  A
C1401      H1406   1.083       .  S
C1402      C1403   1.413       .  A
C1403      C1404   1.402       .  A
C1403      F1407   1.357       .  S
C1404      H1408   1.083       .  S
O1409      C1420   1.296       .  A
O1409     Eu1445   2.485       .  S
O1410      C1421   1.298       .  A
O1410     Eu1444   2.493       .  S
O1411      C1422   1.290       .  A
O1411     Eu1417   2.448       .  S
O1412      C1423   1.289       .  A
O1412     Eu1417   2.451       .  S
O1413      C1423   1.290       .  A
O1413     Eu1447   2.454       .  S
O1414      C1422   1.286       .  A
O1414     Eu1446   2.432       .  S
O1415      C1421   1.292       .  A
O1415     Eu1417   2.457       .  S
O1416      C1420   1.294       .  A
O1416     Eu1417   2.472       .  S
Eu1417     O1427   2.352       .  S
Eu1417     O1419   2.349       .  S
Eu1417     O1418   2.347       .  S
Eu1417     O1425   2.359       .  S
O1418     Eu1447   2.333       .  S
O1418     Eu1444   2.361       .  S
O1419     Eu1445   2.370       .  S
O1419     Eu1446   2.349       .  S
C1420      C2097   1.492       .  S
C1421      C1917   1.493       .  S
C1422      C1957   1.478       .  S
C1423      C1977   1.482       .  S
H1424      O1425   0.958       .  S
O1425     Eu1446   2.339       .  S
O1425     Eu1444   2.366       .  S
H1426      O1427   0.961       .  S
O1427     Eu1445   2.373       .  S
O1427     Eu1447   2.342       .  S
O1428      C1451   1.298       .  A
O1428     Eu1444   2.496       .  S
O1429      C1452   1.297       .  A
O1429     Eu1445   2.495       .  S
O1430      C1453   1.288       .  A
O1430     Eu1446   2.443       .  S
O1431      C1454   1.289       .  A
O1431     Eu1447   2.438       .  S
O1432      C1455   1.287       .  A
O1432     Eu1447   2.422       .  S
O1433      C1456   1.285       .  A
O1433     Eu1446   2.423       .  S
O1434      C1457   1.291       .  A
O1434     Eu1448   2.460       .  S
O1435      C1458   1.292       .  A
O1435     Eu1448   2.462       .  S
O1436      C1457   1.286       .  A
O1436     Eu1446   2.432       .  S
O1437      C1458   1.288       .  A
O1437     Eu1447   2.442       .  S
O1438      C1453   1.299       .  A
O1438     Eu1444   2.506       .  S
O1439      C1456   1.299       .  A
O1439     Eu1445   2.503       .  S
O1440      C1455   1.297       .  A
O1440     Eu1445   2.496       .  S
O1441      C1454   1.298       .  A
O1441     Eu1444   2.499       .  S
O1442      C1451   1.288       .  A
O1442     Eu1448   2.430       .  S
O1443      C1452   1.292       .  A
O1443     Eu1448   2.459       .  S
Eu1444     O1462   2.365       .  S
Eu1444     O1450   2.365       .  S
Eu1445     O1449   2.365       .  S
Eu1445     O1460   2.364       .  S
Eu1446     O1460   2.349       .  S
Eu1446     O1450   2.339       .  S
Eu1447     O1449   2.352       .  S
Eu1447     O1462   2.341       .  S
Eu1448     O1449   2.348       .  S
Eu1448     O1460   2.347       .  S
Eu1448     O1462   2.363       .  S
Eu1448     O1450   2.355       .  S
C1451      C1946   1.489       .  S
C1452      C2077   1.491       .  S
C1453      C1877   1.500       .  S
C1454      C1897   1.497       .  S
C1455      C2037   1.491       .  S
C1456      C2057   1.495       .  S
C1457      C2017   1.483       .  S
C1458      C2006   1.478       .  S
H1459      O1460   0.958       .  S
H1461      O1462   0.961       .  S
N1463      C1468   1.352       .  A
N1463      C2171   1.352       .  A
N1463      H1495   1.039       .  S
N1464      C1472   1.347   1_455  A
N1465      C1470   1.351       .  A
N1465      C2173   1.353       .  A
N1465      H1496   1.039       .  S
N1466      C1474   1.348   1_455  A
C1467      N2167   1.352       .  A
C1467      C1475   1.387       .  A
C1467      C1483   1.411       .  A
C1468      C1484   1.410       .  A
C1468      C1476   1.385       .  A
C1469      N2169   1.350       .  A
C1469      C1477   1.388       .  A
C1469      C1486   1.410       .  A
C1470      C1485   1.411       .  A
C1470      C1478   1.387       .  A
C1471      C1483   1.409       .  A
C1471      C1479   1.386       .  A
C1472      C1486   1.407       .  A
C1472      C1480   1.386       .  A
C1473      C1481   1.385       .  A
C1473      C1484   1.407       .  A
C1474      C1482   1.387       .  A
C1474      C1485   1.409       .  A
C1475      C2180   1.372   1_545  A
C1475      H1487   1.082       .  S
C1476      C2179   1.375       .  A
C1476      H1488   1.082       .  S
C1477      C2182   1.373   1_545  A
C1477      H1489   1.082       .  S
C1478      C2181   1.372       .  A
C1478      H1490   1.082       .  S
C1479      H1491   1.082       .  S
C1480      H1492   1.082       .  S
C1481      H1493   1.082       .  S
C1482      H1494   1.082       .  S
C1483      C1986   1.477       .  S
C1484      C1997   1.480       .  S
C1485      C2026   1.474       .  S
C1486      C1966   1.472       .  S
O1497      C1508   1.296       .  A
O1497     Eu1533   2.482       .  S
O1498      C1509   1.297       .  A
O1498     Eu1532   2.491       .  S
O1499      C1510   1.290       .  A
O1500      C1511   1.289   1_556  A
O1500     Eu1505   2.451       .  S
O1501      C1511   1.289       .  A
O1501     Eu1535   2.443       .  S
O1502      C1510   1.289       .  A
O1502     Eu1534   2.448       .  S
O1503      C1509   1.287       .  A
O1503     Eu1505   2.428   1_554  S
O1504      C1508   1.290       .  A
O1504     Eu1505   2.446       .  S
Eu1505     O1515   2.351       .  S
Eu1505     O1506   2.345   1_556  S
O1506     Eu1535   2.335       .  S
O1506     Eu1532   2.365       .  S
O1507     Eu1534   2.339       .  S
C1508      C1866   1.481       .  S
C1509      C1686   1.487       .  S
C1510      C1726   1.487       .  S
C1511      C1746   1.483       .  S
H1512      O1513   0.975       .  S
O1513     Eu1534   2.338   1_554  S
H1514      O1515   0.968       .  S
O1515     Eu1533   2.371       .  S
O1515     Eu1535   2.347   1_556  S
O1516      C1539   1.300       .  A
O1516     Eu2236   2.515   1_545  S
O1517      C1540   1.299       .  A
O1517     Eu2237   2.503   1_545  S
O1518      C1541   1.285       .  A
O1518     Eu1534   2.415   1_554  S
O1519      C1542   1.291       .  A
O1519     Eu1535   2.447       .  S
O1520      C2247   1.291       .  A
O1520     Eu1535   2.453   1_556  S
O1521      C2248   1.284       .  A
O1521     Eu1534   2.409       .  S
O1522      C1545   1.291       .  A
O1523      C1546   1.290       .  A
O1523     Eu1536   2.454       .  S
O1524      C1545   1.288       .  A
O1524     Eu2238   2.440   1_545  S
O1525      C1546   1.287       .  A
O1525     Eu2239   2.432   1_545  S
O1526      C1541   1.296       .  A
O1527      C1544   1.299       .  A
O1528      C1543   1.298       .  A
O1528     Eu2237   2.499       .  S
O1529      C1542   1.295       .  A
O1529     Eu1532   2.478       .  S
O1530      C1539   1.288       .  A
O1530     Eu1536   2.439       .  S
O1531      C1540   1.288       .  A
O1531     Eu1536   2.433   1_556  S
Eu1532     O2220   2.508       .  S
Eu1532     O2254   2.370       .  S
Eu1533     O2221   2.497       .  S
Eu1533     O2232   2.497       .  S
Eu1533     O2241   2.359       .  S
Eu1534     O2228   2.440       .  S
Eu1534     O2252   2.343       .  S
Eu1534     O2242   2.338   1_556  S
Eu1535     O2229   2.430   1_554  S
Eu1535     O2241   2.341   1_554  S
Eu1535     O2254   2.359       .  S
Eu1536     O1537   2.347   1_554  S
Eu1536     O1550   2.351       .  S
O1537     Eu2237   2.367   1_545  S
O1537     Eu2239   2.344   1_546  S
O1538     Eu2238   2.338   1_545  S
C1539      C1706   1.488       .  S
C1540      C1837   1.496       .  S
C1541      C1637   1.475       .  S
C1542      C1666   1.491       .  S
C1543      O2224   1.291       .  A
C1543      C1806   1.499       .  S
C1544      O2225   1.286       .  A
C1544      C1817   1.491       .  S
C1545      C1777   1.477       .  S
C1546      C1766   1.480       .  S
H1547      O1548   0.971       .  S
O1548     Eu2238   2.348   1_546  S
H1549      O1550   0.970       .  S
O1550     Eu2236   2.371   1_545  S
O1550     Eu2239   2.359   1_545  S
N1551      C1556   1.349   1_554  A
N1551      C1555   1.350   1_554  A
N1551      H1583   1.039       .  S
N1552      C1559   1.348       .  A
N1552      C1560   1.348       .  A
N1553      C1558   1.352       .  A
N1553      C1557   1.353       .  A
N1553      H1584   1.039       .  S
N1554      C1561   1.351       .  A
N1554      C1562   1.350       .  A
C1555      C1563   1.387       .  A
C1555      C1571   1.409   1_556  A
C1556      C1572   1.410   1_556  A
C1556      C1564   1.387       .  A
C1557      C1565   1.388   1_554  A
C1557      C1574   1.414       .  A
C1558      C1573   1.412       .  A
C1558      C1566   1.387   1_554  A
C1559      C1571   1.407       .  A
C1559      C1567   1.386       .  A
C1560      C1574   1.407       .  A
C1560      C1568   1.386       .  A
C1561      C1569   1.386       .  A
C1561      C1572   1.413       .  A
C1562      C1570   1.385       .  A
C1562      C1573   1.410       .  A
C1563      C1564   1.374       .  A
C1563      H1575   1.082       .  S
C1564      H1576   1.082       .  S
C1565      C1566   1.374       .  A
C1565      H1577   1.082       .  S
C1566      H1578   1.082       .  S
C1567      C1568   1.372       .  A
C1567      H1579   1.082       .  S
C1568      H1580   1.082       .  S
C1569      C1570   1.373       .  A
C1569      H1581   1.082       .  S
C1570      H1582   1.082       .  S
C1571      C1757   1.472       .  S
C1572      C1737   1.483       .  S
C1573      C1717   1.482       .  S
C1574      C1786   1.477       .  S
C1585      C1586   1.531       .  S
C1585      C1589   1.540       .  S
C1585      C2046   1.533       .  S
C1586      H1593   1.087       .  S
C1587      C1588   1.541   1_455  S
C1587      C1697   1.484       .  S
C1588      C1592   1.541       .  S
C1588      C1590   1.537   1_655  S
C1588      H1594   1.110       .  S
C1589      H1595   1.083       .  S
C1590      C1677   1.475       .  S
C1591      H1596   1.086       .  S
C1591      C1592   1.372   1_455  D
C1592      C2066   1.490       .  S
C1597      C1598   1.532       .  S
C1597      C1603   1.548       .  S
C1597      C2305   1.533       .  S
C1597      C1646   1.532       .  S
C1598      H1605   1.086       .  S
C1598      C1599   1.366       .  D
C1599      C1600   1.548       .  S
C1599      C2086   1.494       .  S
C1600      C1604   1.535       .  S
C1600      C2306   1.543       .  S
C1600      H1606   1.110       .  S
C1601      C2301   1.535   1_545  S
C1601      H1607   1.086       .  S
C1601      C1602   1.368       .  D
C1602      C2304   1.548   1_545  S
C1602      C2106   1.495       .  S
C1603      H1608   1.081       .  S
C1603      C1604   1.365       .  D
C1604      C1657   1.478       .  S
C1609      C1610   1.529       .  S
C1609      C1613   1.546       .  S
C1609      C1906   1.538       .  S
C1610      H1617   1.087       .  S
C1611      C1612   1.540   1_455  S
C1611      C1857   1.473       .  S
C1612      C1616   1.545       .  S
C1612      C1614   1.540   1_655  S
C1612      H1618   1.108       .  S
C1613      H1619   1.082       .  S
C1614      C1846   1.488       .  S
C1615      H1620   1.085       .  S
C1615      C1616   1.375   1_455  D
C1616      C1886   1.501       .  S
C1621      C2326   1.532       .  S
C1621      C1627   1.541       .  S
C1621      C1625   1.543       .  S
C1621      C1826   1.535       .  S
C1622      C2325   1.531       .  S
C1622      H1629   1.086       .  S
C1622      C1623   1.369       .  D
C1623      C2328   1.555       .  S
C1623      C1926   1.499       .  S
C1624      C2327   1.542       .  S
C1624      C1628   1.544       .  S
C1624      C1626   1.541       .  S
C1624      H1630   1.110       .  S
C1625      H1631   1.082       .  S
C1625      C1626   1.364       .  D
C1626      C1937   1.488       .  S
C1627      H1632   1.085       .  S
C1627      C1628   1.372       .  D
C1628      C1797   1.493       .  S
C1633      C2338   1.401   1_545  A
C1633      C1638   1.390       .  A
C1633      H1643   1.083       .  S
C1634      C1639   1.490       .  S
C1634      C2337   1.403       .  A
C1634      C1635   1.413       .  A
C1635      C1636   1.403       .  A
C1635      F1640   1.357       .  S
C1636      C1637   1.402       .  A
C1636      H1641   1.083       .  S
C1637      C2342   1.408       .  A
C1638      C2341   1.408   1_545  A
C1638      F1642   1.358       .  S
C1639      C2348   1.409       .  A
C1639      C1648   1.403       .  A
C1644      C2343   1.408       .  A
C1644      C1645   1.396       .  A
C1644      F1649   1.358       .  S
C1645      C2350   1.409       .  A
C1645      H1650   1.077       .  S
C1646      C2349   1.409       .  A
C1646      C1647   1.414       .  A
C1647      C1648   1.398       .  A
C1647      F1651   1.358       .  S
C1648      H1652   1.083       .  S
C1653      C2358   1.405   1_545  A
C1653      C1658   1.395       .  A
C1653      H1663   1.084       .  S
C1654      C1659   1.479       .  S
C1654      C2357   1.406       .  A
C1654      C1655   1.404       .  A
C1655      C1656   1.399       .  A
C1655      F1660   1.357       .  S
C1656      C1657   1.402       .  A
C1656      H1661   1.080       .  S
C1657      C2362   1.405       .  A
C1658      C2361   1.404   1_545  A
C1658      F1662   1.358       .  S
C1659      C1664   1.400       .  A
C1659      C1668   1.405       .  A
C1664      C1665   1.391       .  A
C1664      F2373   1.358       .  S
C1665      C1666   1.409       .  A
C1665      H2374   1.083       .  S
C1666      C1667   1.413       .  A
C1667      C1668   1.407       .  A
C1667      F1671   1.357       .  S
C1668      H1672   1.083       .  S
F1669      C2368   1.358       .  S
H1670      C2369   1.083       .  S
C1673      C1678   1.397       .  A
C1673      H1683   1.084       .  S
C1674      C1679   1.475       .  S
C1674      C1675   1.404       .  A
C1675      C1676   1.400       .  A
C1675      F1680   1.357       .  S
C1676      C1677   1.403   1_655  A
C1676      H1681   1.083       .  S
C1678      F1682   1.358       .  S
C1679      C1688   1.397       .  A
C1684      C1685   1.404       .  A
C1684      F1689   1.357       .  S
C1685      H1690   1.083       .  S
C1686      C1687   1.416       .  A
C1687      C1688   1.394       .  A
C1687      F1691   1.358       .  S
C1688      H1692   1.084       .  S
C1693      C1694   1.411   1_655  A
C1693      C1698   1.402   1_655  A
C1693      H1703   1.082       .  S
C1694      C1699   1.499   1_455  S
C1695      C1696   1.401       .  A
C1695      F1700   1.357       .  S
C1696      H1701   1.079       .  S
C1697      C1698   1.403       .  A
C1698      F1702   1.358       .  S
C1699      C1704   1.409       .  A
C1704      C1705   1.400       .  A
C1704      F1709   1.357       .  S
C1705      C1706   1.406       .  A
C1705      H1710   1.084       .  S
C1707      C1708   1.407       .  A
C1707      F1711   1.357       .  S
C1708      H1712   1.083       .  S
C1713      C1714   1.405   1_556  A
C1713      C1718   1.396       .  A
C1713      H1723   1.083       .  S
C1714      C1719   1.480       .  S
C1714      C1715   1.408       .  A
C1715      C1716   1.397       .  A
C1715      F1720   1.357       .  S
C1716      C1717   1.402       .  A
C1716      H1721   1.083       .  S
C1717      C1718   1.403   1_554  A
C1718      F1722   1.357       .  S
C1719      C1724   1.405   1_554  A
C1719      C1728   1.403       .  A
C1724      C1725   1.397       .  A
C1724      F1729   1.358       .  S
C1725      C1726   1.409       .  A
C1725      H1730   1.083       .  S
C1726      C1727   1.411   1_556  A
C1727      C1728   1.398       .  A
C1727      F1731   1.357       .  S
C1728      H1732   1.083       .  S
C1733      C1734   1.402       .  A
C1733      C1738   1.396       .  A
C1733      H1743   1.083       .  S
C1734      C1739   1.473       .  S
C1734      C1735   1.406   1_554  A
C1735      C1736   1.395       .  A
C1735      F1740   1.357       .  S
C1736      C1737   1.402   1_556  A
C1736      H1741   1.083       .  S
C1737      C1738   1.407       .  A
C1738      F1742   1.358       .  S
C1739      C1744   1.402       .  A
C1739      C1748   1.402   1_554  A
C1744      C1745   1.393       .  A
C1744      F1749   1.358       .  S
C1745      C1746   1.408       .  A
C1745      H1750   1.083       .  S
C1746      C1747   1.412   1_554  A
C1747      C1748   1.398       .  A
C1747      F1751   1.357       .  S
C1748      H1752   1.083       .  S
C1753      C1754   1.405   1_556  A
C1753      C1758   1.396       .  A
C1753      H1763   1.083       .  S
C1754      C1759   1.472       .  S
C1754      C1755   1.406       .  A
C1755      C1756   1.392       .  A
C1755      F1760   1.357       .  S
C1756      C1757   1.399       .  A
C1756      H1761   1.083       .  S
C1757      C1758   1.402   1_554  A
C1758      F1762   1.357       .  S
C1759      C1764   1.403   1_554  A
C1759      C1768   1.402       .  A
C1764      C1765   1.394       .  A
C1764      F1769   1.358       .  S
C1765      C1766   1.409   1_556  A
C1765      H1770   1.083       .  S
C1766      C1767   1.409       .  A
C1767      C1768   1.394       .  A
C1767      F1771   1.357       .  S
C1768      H1772   1.083       .  S
C1773      C1774   1.404       .  A
C1773      C1778   1.399       .  A
C1773      H1783   1.083       .  S
C1774      C1779   1.475       .  S
C1774      C1775   1.403   1_554  A
C1775      C1776   1.394       .  A
C1775      F1780   1.358       .  S
C1776      C1777   1.406   1_556  A
C1776      H1781   1.083       .  S
C1777      C1778   1.408       .  A
C1778      F1782   1.358       .  S
C1779      C1784   1.405   1_554  A
C1779      C1788   1.405       .  A
C1784      C1785   1.393       .  A
C1784      F1789   1.357       .  S
C1785      C1786   1.400   1_556  A
C1785      H1790   1.084       .  S
C1786      C1787   1.403       .  A
C1787      C1788   1.398       .  A
C1787      F1791   1.357       .  S
C1788      H1792   1.083       .  S
C1793      C2498   1.407       .  A
C1793      C1798   1.400       .  A
C1793      H1803   1.083       .  S
C1794      C1799   1.499       .  S
C1794      C2497   1.405       .  A
C1794      C1795   1.410   1_565  A
C1795      C1796   1.408       .  A
C1795      F1800   1.357       .  S
C1796      C2501   1.408   1_545  A
C1796      H1801   1.080       .  S
C1797      C2500   1.406       .  A
C1797      C1798   1.409       .  A
C1798      F1802   1.358       .  S
C1799      C2508   1.407   1_565  A
C1799      C1808   1.409       .  A
C1804      C2503   1.404       .  A
C1804      C1805   1.395       .  A
C1804      F1809   1.358       .  S
C1805      C2510   1.410       .  A
C1805      H1810   1.083       .  S
C1806      C2509   1.409   1_565  A
C1806      C1807   1.412       .  A
C1807      C1808   1.410       .  A
C1807      F1811   1.357       .  S
C1808      H1812   1.083       .  S
C1813      C2518   1.407       .  A
C1813      C1818   1.405       .  A
C1813      H1823   1.083       .  S
C1814      C1819   1.484       .  S
C1814      C2517   1.409       .  A
C1814      C1815   1.401       .  A
C1815      C1816   1.391       .  A
C1815      F1820   1.358       .  S
C1816      C2521   1.412       .  A
C1816      H1821   1.083       .  S
C1817      C2520   1.412       .  A
C1817      C1818   1.408   1_565  A
C1818      F1822   1.357       .  S
C1819      C2528   1.401       .  A
C1819      C1828   1.405       .  A
C1824      C2523   1.402   1_565  A
C1824      C1825   1.399       .  A
C1824      F1829   1.358       .  S
C1825      C2530   1.415   1_565  A
C1825      H1830   1.078       .  S
C1826      C2529   1.413       .  A
C1826      C1827   1.414       .  A
C1827      C1828   1.401       .  A
C1827      F1831   1.358       .  S
C1828      H1832   1.083       .  S
C1833      C1838   1.406       .  A
C1833      H1843   1.083       .  S
C1834      C1839   1.484       .  S
C1834      C1835   1.400       .  A
C1835      C1836   1.395       .  A
C1835      F1840   1.358       .  S
C1836      C1837   1.413       .  A
C1836      H1841   1.083       .  S
C1838      F1842   1.357       .  S
C1839      C1848   1.405       .  A
C1844      C1845   1.400       .  A
C1844      F1849   1.358       .  S
C1845      H1850   1.083       .  S
C1846      C1847   1.408   1_455  A
C1847      C1848   1.405       .  A
C1847      F1851   1.357       .  S
C1848      H1852   1.083       .  S
C1853      C1858   1.400       .  A
C1853      H1863   1.083       .  S
C1854      C1859   1.485       .  S
C1854      C1855   1.407       .  A
C1855      C1856   1.401       .  A
C1855      F1860   1.357       .  S
C1856      C1857   1.403   1_655  A
C1856      H1861   1.083       .  S
C1858      F1862   1.357       .  S
C1859      C1868   1.406   1_655  A
C1864      C1865   1.395       .  A
C1864      F1869   1.357       .  S
C1865      H1870   1.084       .  S
C1866      C1867   1.407   1_655  A
C1867      C1868   1.403       .  A
C1867      F1871   1.357       .  S
C1868      H1872   1.083       .  S
C1873      C1874   1.401       .  A
C1873      C1878   1.396       .  A
C1873      H1883   1.084       .  S
C1874      C1879   1.493       .  S
C1874      C1875   1.409       .  A
C1875      C1876   1.410       .  A
C1875      F1880   1.357       .  S
C1876      C1877   1.410       .  A
C1876      H1881   1.083       .  S
C1877      C1878   1.415       .  A
C1878      F1882   1.358       .  S
C1879      C1884   1.407       .  A
C1879      C1888   1.404       .  A
C1884      C1885   1.399       .  A
C1884      F1889   1.358       .  S
C1885      C1886   1.407       .  A
C1885      H1890   1.082       .  S
C1886      C1887   1.414       .  A
C1887      C1888   1.406       .  A
C1887      F1891   1.356       .  S
C1888      H1892   1.083       .  S
C1893      C1894   1.409       .  A
C1893      C1898   1.407       .  A
C1893      H1903   1.083       .  S
C1894      C1899   1.494       .  S
C1894      C1895   1.405       .  A
C1895      C1896   1.396       .  A
C1895      F1900   1.358       .  S
C1896      C1897   1.411       .  A
C1896      H1901   1.083       .  S
C1897      C1898   1.411       .  A
C1898      F1902   1.357       .  S
C1899      C1904   1.405       .  A
C1899      C1908   1.406       .  A
C1904      C1905   1.401       .  A
C1904      F1909   1.357       .  S
C1905      C1906   1.413       .  A
C1905      H1910   1.077       .  S
C1906      C1907   1.413       .  A
C1907      C1908   1.400       .  A
C1907      F1911   1.358       .  S
C1908      H1912   1.083       .  S
C1913      C1914   1.406       .  A
C1913      C1918   1.407       .  A
C1913      H1923   1.083       .  S
C1914      C1919   1.487       .  S
C1914      C1915   1.403       .  A
C1915      C1916   1.400       .  A
C1915      F1920   1.357       .  S
C1916      C1917   1.409       .  A
C1916      H1921   1.083       .  S
C1917      C1918   1.410       .  A
C1918      F1922   1.357       .  S
C1919      C1924   1.407       .  A
C1919      C1928   1.401       .  A
C1924      C1925   1.408       .  A
C1924      F1929   1.357       .  S
C1925      C1926   1.407       .  A
C1925      H1930   1.080       .  S
C1926      C1927   1.412       .  A
C1927      C1928   1.402       .  A
C1927      F1931   1.357       .  S
C1928      H1932   1.083       .  S
C1933      C1934   1.404       .  A
C1933      C1938   1.402       .  A
C1933      H1943   1.083       .  S
C1934      C1939   1.484       .  S
C1934      C1935   1.406       .  A
C1935      C1936   1.398       .  A
C1935      F1940   1.358       .  S
C1936      C1937   1.406       .  A
C1936      H1941   1.083       .  S
C1937      C1938   1.407       .  A
C1938      F1942   1.357       .  S
C1939      C1944   1.402       .  A
C1939      C1948   1.407       .  A
C1944      C1945   1.394       .  A
C1944      F1949   1.358       .  S
C1945      C1946   1.411       .  A
C1945      H1950   1.083       .  S
C1946      C1947   1.409       .  A
C1947      C1948   1.405       .  A
C1947      F1951   1.357       .  S
C1948      H1952   1.083       .  S
C1953      C1954   1.399       .  A
C1953      C1958   1.393       .  A
C1953      H1963   1.084       .  S
C1954      C1959   1.468       .  S
C1954      C1955   1.402       .  A
C1955      C1956   1.394       .  A
C1955      F1960   1.358       .  S
C1956      C1957   1.407       .  A
C1956      H1961   1.083       .  S
C1957      C1958   1.412       .  A
C1958      F1962   1.358       .  S
C1959      C1964   1.404       .  A
C1959      C1968   1.403       .  A
C1964      C1965   1.393       .  A
C1964      F1969   1.358       .  S
C1965      C1966   1.401       .  A
C1965      H1970   1.083       .  S
C1966      C1967   1.402       .  A
C1967      C1968   1.394       .  A
C1967      F1971   1.357       .  S
C1968      H1972   1.083       .  S
C1973      C1974   1.401       .  A
C1973      C1978   1.394       .  A
C1973      H1983   1.084       .  S
C1974      C1979   1.477       .  S
C1974      C1975   1.405       .  A
C1975      C1976   1.400       .  A
C1975      F1980   1.358       .  S
C1976      C1977   1.408       .  A
C1976      H1981   1.083       .  S
C1977      C1978   1.409       .  A
C1978      F1982   1.357       .  S
C1979      C1984   1.406       .  A
C1979      C1988   1.405       .  A
C1984      C1985   1.397       .  A
C1984      F1989   1.357       .  S
C1985      C1986   1.401       .  A
C1985      H1990   1.083       .  S
C1986      C1987   1.402       .  A
C1987      C1988   1.395       .  A
C1987      F1991   1.357       .  S
C1988      H1992   1.083       .  S
C1993      C1994   1.405       .  A
C1993      C1998   1.398       .  A
C1993      H2003   1.083       .  S
C1994      C1999   1.482       .  S
C1994      C1995   1.409       .  A
C1995      C1996   1.397       .  A
C1995      F2000   1.357       .  S
C1996      C1997   1.400       .  A
C1996      H2001   1.083       .  S
C1997      C1998   1.403       .  A
C1998      F2002   1.357       .  S
C1999      C2004   1.408       .  A
C1999      C2008   1.403       .  A
C2004      C2005   1.400       .  A
C2004      F2009   1.358       .  S
C2005      C2006   1.405       .  A
C2005      H2010   1.083       .  S
C2006      C2007   1.409       .  A
C2007      C2008   1.395       .  A
C2007      F2011   1.358       .  S
C2008      H2012   1.083       .  S
C2013      C2014   1.398       .  A
C2013      C2018   1.394       .  A
C2013      H2023   1.084       .  S
C2014      C2019   1.466       .  S
C2014      C2015   1.401       .  A
C2015      C2016   1.396       .  A
C2015      F2020   1.357       .  S
C2016      C2017   1.408       .  A
C2016      H2021   1.083       .  S
C2017      C2018   1.414       .  A
C2018      F2022   1.358       .  S
C2019      C2024   1.404       .  A
C2019      C2028   1.402       .  A
C2024      C2025   1.393       .  A
C2024      F2029   1.357       .  S
C2025      C2026   1.401       .  A
C2025      H2030   1.083       .  S
C2026      C2027   1.403       .  A
C2027      C2028   1.394       .  A
C2027      F2031   1.357       .  S
C2028      H2032   1.083       .  S
C2033      C2034   1.409       .  A
C2033      C2038   1.407       .  A
C2033      H2043   1.083       .  S
C2034      C2039   1.485       .  S
C2034      C2035   1.401       .  A
C2035      C2036   1.389       .  A
C2035      F2040   1.358       .  S
C2036      C2037   1.410       .  A
C2036      H2041   1.083       .  S
C2037      C2038   1.410       .  A
C2038      F2042   1.357       .  S
C2039      C2044   1.401       .  A
C2039      C2048   1.405       .  A
C2044      C2045   1.398       .  A
C2044      F2049   1.357       .  S
C2045      C2046   1.415       .  A
C2045      H2050   1.077       .  S
C2046      C2047   1.412       .  A
C2047      C2048   1.399       .  A
C2047      F2051   1.358       .  S
C2048      H2052   1.083       .  S
C2053      C2054   1.399       .  A
C2053      C2058   1.392       .  A
C2053      H2063   1.084       .  S
C2054      C2059   1.489       .  S
C2054      C2055   1.409       .  A
C2055      C2056   1.408       .  A
C2055      F2060   1.357       .  S
C2056      C2057   1.409       .  A
C2056      H2061   1.083       .  S
C2057      C2058   1.417       .  A
C2058      F2062   1.358       .  S
C2059      C2064   1.409       .  A
C2059      C2068   1.405       .  A
C2064      C2065   1.398       .  A
C2064      F2069   1.358       .  S
C2065      C2066   1.404       .  A
C2065      H2070   1.083       .  S
C2066      C2067   1.409       .  A
C2067      C2068   1.405       .  A
C2067      F2071   1.357       .  S
C2068      H2072   1.083       .  S
C2073      C2074   1.406       .  A
C2073      C2078   1.404       .  A
C2073      H2083   1.083       .  S
C2074      C2079   1.487       .  S
C2074      C2075   1.405       .  A
C2075      C2076   1.401       .  A
C2075      F2080   1.358       .  S
C2076      C2077   1.409       .  A
C2076      H2081   1.083       .  S
C2077      C2078   1.409       .  A
C2078      F2082   1.357       .  S
C2079      C2084   1.406       .  A
C2079      C2088   1.404       .  A
C2084      C2085   1.401       .  A
C2084      F2089   1.357       .  S
C2085      C2086   1.405       .  A
C2085      H2090   1.079       .  S
C2086      C2087   1.412       .  A
C2087      C2088   1.401       .  A
C2087      F2091   1.358       .  S
C2088      H2092   1.083       .  S
C2093      C2094   1.402       .  A
C2093      C2098   1.398       .  A
C2093      H2103   1.083       .  S
C2094      C2099   1.492       .  S
C2094      C2095   1.411       .  A
C2095      C2096   1.408       .  A
C2095      F2100   1.358       .  S
C2096      C2097   1.408       .  A
C2096      H2101   1.083       .  S
C2097      C2098   1.410       .  A
C2098      F2102   1.358       .  S
C2099      C2104   1.411       .  A
C2099      C2108   1.402       .  A
C2104      C2105   1.405       .  A
C2104      F2109   1.357       .  S
C2105      C2106   1.404       .  A
C2105      H2110   1.083       .  S
C2106      C2107   1.413       .  A
C2107      C2108   1.400       .  A
C2107      F2111   1.357       .  S
C2108      H2112   1.083       .  S
O2113      C2124   1.296       .  A
O2113     Eu2149   2.488       .  S
O2114      C2125   1.297       .  A
O2114     Eu2148   2.488       .  S
O2115      C2126   1.290       .  A
O2115     Eu2121   2.451       .  S
O2116      C2127   1.289       .  A
O2116     Eu2121   2.451       .  S
O2117      C2127   1.288       .  A
O2117     Eu2151   2.445       .  S
O2118      C2126   1.286       .  A
O2118     Eu2150   2.433       .  S
O2119      C2125   1.291       .  A
O2119     Eu2121   2.453       .  S
O2120      C2124   1.291       .  A
O2120     Eu2121   2.450       .  S
Eu2121     O2131   2.357       .  S
Eu2121     O2123   2.347       .  S
Eu2121     O2122   2.344       .  S
Eu2121     O2129   2.352       .  S
O2122     Eu2151   2.336       .  S
O2122     Eu2148   2.360       .  S
O2123     Eu2149   2.361       .  S
O2123     Eu2150   2.339       .  S
C2124      C2801   1.486       .  S
C2125      C2621   1.482       .  S
C2126      C2661   1.481       .  S
C2127      C2681   1.477       .  S
H2128      O2129   0.958       .  S
O2129     Eu2150   2.348       .  S
O2129     Eu2148   2.371       .  S
H2130      O2131   0.962       .  S
O2131     Eu2149   2.369       .  S
O2131     Eu2151   2.343       .  S
O2132      C2155   1.298       .  A
O2132     Eu2148   2.499       .  S
O2133      C2156   1.296       .  A
O2133     Eu2149   2.483       .  S
O2134      C2157   1.285       .  A
O2134     Eu2150   2.421       .  S
O2135      C2158   1.286       .  A
O2135     Eu2151   2.418       .  S
O2136      C2159   1.286       .  A
O2136     Eu2151   2.424       .  S
O2137      C2160   1.288       .  A
O2137     Eu2150   2.436       .  S
O2138      C2161   1.289       .  A
O2138     Eu2152   2.446       .  S
O2139      C2162   1.290       .  A
O2139     Eu2152   2.449       .  S
O2140      C2161   1.288       .  A
O2140     Eu2150   2.445       .  S
O2141      C2162   1.287       .  A
O2141     Eu2151   2.438       .  S
O2142      C2157   1.300       .  A
O2142     Eu2148   2.508       .  S
O2143      C2160   1.297       .  A
O2143     Eu2149   2.497       .  S
O2144      C2159   1.297       .  A
O2144     Eu2149   2.493       .  S
O2145      C2158   1.299       .  A
O2145     Eu2148   2.504       .  S
O2146      C2155   1.292       .  A
O2146     Eu2152   2.455       .  S
O2147      C2156   1.291       .  A
O2147     Eu2152   2.449       .  S
Eu2148     O2166   2.364       .  S
Eu2148     O2154   2.363       .  S
Eu2149     O2153   2.362       .  S
Eu2149     O2164   2.369       .  S
Eu2150     O2164   2.340       .  S
Eu2150     O2154   2.342       .  S
Eu2151     O2153   2.340       .  S
Eu2151     O2166   2.347       .  S
Eu2152     O2153   2.350       .  S
Eu2152     O2164   2.356       .  S
Eu2152     O2166   2.354       .  S
Eu2152     O2154   2.342       .  S
C2155      C2650   1.499       .  S
C2156      C2781   1.481       .  S
C2157      C2581   1.496       .  S
C2158      C2601   1.493       .  S
C2159      C2741   1.488       .  S
C2160      C2761   1.494       .  S
C2161      C2721   1.483       .  S
C2162      C2710   1.481       .  S
H2163      O2164   0.957       .  S
H2165      O2166   0.961       .  S
N2167      C2172   1.351   1_545  A
N2167      H2199   1.039       .  S
N2168      C2176   1.351   1_455  A
N2169      C2174   1.350   1_545  A
N2169      H2200   1.040   1_545  S
N2170      C2178   1.352   1_455  A
C2171      C2179   1.389       .  A
C2171      C2187   1.414       .  A
C2172      C2188   1.412       .  A
C2172      C2180   1.387       .  A
C2173      C2181   1.388       .  A
C2173      C2190   1.413       .  A
C2174      C2189   1.409       .  A
C2174      C2182   1.387       .  A
C2175      C2187   1.412       .  A
C2175      C2183   1.387       .  A
C2176      C2190   1.412       .  A
C2176      C2184   1.386   1_655  A
C2177      C2185   1.386       .  A
C2177      C2188   1.411       .  A
C2178      C2186   1.385       .  A
C2178      C2189   1.413       .  A
C2179      H2191   1.082       .  S
C2180      H2192   1.082       .  S
C2181      H2193   1.082       .  S
C2182      H2194   1.082       .  S
C2183      H2195   1.082       .  S
C2184      H2196   1.082   1_455  S
C2185      H2197   1.082       .  S
C2186      H2198   1.082       .  S
C2187      C2690   1.479       .  S
C2188      C2701   1.481       .  S
C2189      C2730   1.484       .  S
C2190      C2670   1.483       .  S
O2201      C2212   1.299       .  A
O2201     Eu2237   2.501       .  S
O2202      C2213   1.298       .  A
O2202     Eu2236   2.494       .  S
O2203      C2214   1.289       .  A
O2204      C2215   1.289       .  A
O2204     Eu2209   2.450       .  S
O2205      C2215   1.289       .  A
O2205     Eu2239   2.444   1_556  S
O2206      C2214   1.290       .  A
O2206     Eu2238   2.450   1_556  S
O2207      C2213   1.290       .  A
O2207     Eu2209   2.445   1_554  S
O2208      C2212   1.290       .  A
O2208     Eu2209   2.443       .  S
Eu2209     O2219   2.349       .  S
Eu2209     O2210   2.342   1_556  S
O2210     Eu2239   2.336       .  S
O2210     Eu2236   2.365       .  S
O2211     Eu2238   2.338   1_556  S
C2212      C2570   1.491       .  S
C2213      C2390   1.497       .  S
C2214      C2430   1.487       .  S
C2215      C2450   1.484       .  S
H2216      O2217   0.976       .  S
O2217     Eu2238   2.342       .  S
H2218      O2219   0.968       .  S
O2219     Eu2237   2.369       .  S
O2219     Eu2239   2.345   1_556  S
O2220      C2243   1.299       .  A
O2221      C2244   1.298       .  A
O2222      C2245   1.286       .  A
O2222     Eu2238   2.424       .  S
O2223      C2246   1.290       .  A
O2223     Eu2239   2.441       .  S
O2224     Eu2239   2.449   1_556  S
O2225     Eu2238   2.421   1_556  S
O2226      C2249   1.290       .  A
O2227      C2250   1.290       .  A
O2227     Eu2240   2.457   1_556  S
O2228      C2249   1.288   1_556  A
O2229      C2250   1.287       .  A
O2230      C2245   1.296       .  A
O2231      C2248   1.299       .  A
O2232      C2247   1.298       .  A
O2233      C2246   1.294       .  A
O2233     Eu2236   2.475       .  S
O2234      C2243   1.290       .  A
O2234     Eu2240   2.446       .  S
O2235      C2244   1.288       .  A
O2235     Eu2240   2.431   1_556  S
Eu2240     O2241   2.345   1_554  S
Eu2240     O2254   2.347       .  S
C2243      C2410   1.494       .  S
C2244      C2541   1.490       .  S
C2245      C2341   1.477       .  S
C2246      C2370   1.489       .  S
C2247      C2510   1.500       .  S
C2248      C2521   1.489       .  S
C2249      C2481   1.472       .  S
C2250      C2470   1.481       .  S
H2251      O2252   0.971       .  S
H2253      O2254   0.969       .  S
N2255      C2260   1.352   1_554  A
N2255      C2259   1.350   1_554  A
N2255      H2287   1.039       .  S
N2256      C2263   1.347       .  A
N2256      C2264   1.349       .  A
N2257      C2262   1.351   1_554  A
N2257      C2261   1.354       .  A
N2257      H2288   1.036       .  S
N2258      C2265   1.351       .  A
N2258      C2266   1.350       .  A
C2259      C2267   1.388       .  A
C2259      C2275   1.411   1_556  A
C2260      C2276   1.410   1_556  A
C2260      C2268   1.386       .  A
C2261      C2269   1.387   1_554  A
C2261      C2278   1.415       .  A
C2262      C2277   1.416   1_556  A
C2262      C2270   1.388       .  A
C2263      C2275   1.407       .  A
C2263      C2271   1.386       .  A
C2264      C2278   1.409       .  A
C2264      C2272   1.387       .  A
C2265      C2273   1.385       .  A
C2265      C2276   1.410       .  A
C2266      C2274   1.387       .  A
C2266      C2277   1.412       .  A
C2267      C2268   1.374       .  A
C2267      H2279   1.082       .  S
C2268      H2280   1.082       .  S
C2269      C2270   1.372       .  A
C2269      H2281   1.082       .  S
C2270      H2282   1.082       .  S
C2271      C2272   1.371       .  A
C2271      H2283   1.082       .  S
C2272      H2284   1.082       .  S
C2273      C2274   1.371       .  A
C2273      H2285   1.082       .  S
C2274      H2286   1.082       .  S
C2275      C2461   1.473       .  S
C2276      C2441   1.483   1_554  S
C2277      C2421   1.483       .  S
C2278      C2490   1.479       .  S
C2289      C2290   1.533       .  S
C2289      C2293   1.542       .  S
C2289      C2750   1.534       .  S
C2290      H2297   1.087       .  S
C2291      C2292   1.541   1_455  S
C2291      C2401   1.483       .  S
C2292      C2296   1.542       .  S
C2292      C2294   1.539   1_655  S
C2292      H2298   1.110       .  S
C2293      H2299   1.082       .  S
C2294      C2381   1.482       .  S
C2295      H2300   1.085       .  S
C2295      C2296   1.374   1_455  D
C2296      C2770   1.492       .  S
C2301      C2302   1.525       .  S
C2301      C2307   1.542       .  S
C2301      C2350   1.527       .  S
C2302      H2309   1.085       .  S
C2302      C2303   1.364       .  D
C2303      C2304   1.551       .  S
C2303      C2790   1.494       .  S
C2304      C2308   1.539       .  S
C2304      H2310   1.110       .  S
C2305      H2311   1.086       .  S
C2305      C2306   1.368       .  D
C2306      C2810   1.489       .  S
C2307      H2312   1.082       .  S
C2307      C2308   1.366       .  D
C2308      C2361   1.476       .  S
C2313      C2314   1.535       .  S
C2313      C2317   1.543       .  S
C2313      C2610   1.535       .  S
C2314      H2321   1.087       .  S
C2315      C2316   1.541   1_455  S
C2315      C2561   1.479       .  S
C2316      C2320   1.542       .  S
C2316      C2318   1.539   1_655  S
C2316      H2322   1.110       .  S
C2317      H2323   1.081       .  S
C2318      C2550   1.481       .  S
C2319      H2324   1.086       .  S
C2319      C2320   1.370   1_455  D
C2320      C2590   1.493       .  S
C2325      C2331   1.541   1_545  S
C2325      C2329   1.541   1_545  S
C2325      C2530   1.540       .  S
C2326      H2333   1.087       .  S
C2326      C2327   1.363       .  D
C2327      C2630   1.483       .  S
C2328      C2332   1.548   1_545  S
C2328      C2330   1.547   1_545  S
C2328      H2334   1.110       .  S
C2329      H2335   1.083       .  S
C2329      C2330   1.362       .  D
C2330      C2641   1.488       .  S
C2331      H2336   1.084       .  S
C2331      C2332   1.372       .  D
C2332      C2501   1.502       .  S
C2337      C2342   1.391       .  A
C2337      H2347   1.083       .  S
C2338      C2343   1.483       .  S
C2338      C2339   1.411       .  A
C2339      C2340   1.404       .  A
C2339      F2344   1.357       .  S
C2340      C2341   1.404       .  A
C2340      H2345   1.083       .  S
C2342      F2346   1.359       .  S
C2343      C2352   1.400       .  A
C2348      C2349   1.396       .  A
C2348      F2353   1.358       .  S
C2349      H2354   1.076       .  S
C2350      C2351   1.414       .  A
C2351      C2352   1.396       .  A
C2351      F2355   1.358       .  S
C2352      H2356   1.083       .  S
C2357      C2362   1.398       .  A
C2357      H2367   1.084       .  S
C2358      C2363   1.480       .  S
C2358      C2359   1.406       .  A
C2359      C2360   1.401       .  A
C2359      F2364   1.357       .  S
C2360      C2361   1.403       .  A
C2360      H2365   1.081       .  S
C2362      F2366   1.358       .  S
C2363      C2368   1.402       .  A
C2363      C2372   1.406       .  A
C2368      C2369   1.389       .  A
C2369      C2370   1.409       .  A
C2370      C2371   1.412       .  A
C2371      C2372   1.405       .  A
C2371      F2375   1.357       .  S
C2372      H2376   1.083       .  S
C2377      C2382   1.396       .  A
C2377      H2387   1.084       .  S
C2378      C2383   1.484       .  S
C2378      C2379   1.408       .  A
C2379      C2380   1.406       .  A
C2379      F2384   1.357       .  S
C2380      C2381   1.405   1_655  A
C2380      H2385   1.083       .  S
C2382      F2386   1.358       .  S
C2383      C2392   1.399       .  A
C2388      C2389   1.405       .  A
C2388      F2393   1.357       .  S
C2389      H2394   1.083       .  S
C2390      C2391   1.416       .  A
C2391      C2392   1.394       .  A
C2391      F2395   1.357       .  S
C2392      H2396   1.084       .  S
C2397      C2398   1.410   1_455  A
C2397      C2402   1.403       .  A
C2397      H2407   1.083       .  S
C2398      C2403   1.497       .  S
C2399      C2400   1.400       .  A
C2399      F2404   1.357       .  S
C2400      H2405   1.083       .  S
C2401      C2402   1.402       .  A
C2402      F2406   1.358       .  S
C2403      C2408   1.407       .  A
C2408      C2409   1.400       .  A
C2408      F2413   1.358       .  S
C2409      C2410   1.409       .  A
C2409      H2414   1.083       .  S
C2411      C2412   1.405       .  A
C2411      F2415   1.357       .  S
C2412      H2416   1.083       .  S
C2417      C2418   1.405       .  A
C2417      C2422   1.397       .  A
C2417      H2427   1.083       .  S
C2418      C2423   1.478       .  S
C2418      C2419   1.406   1_556  A
C2419      C2420   1.394       .  A
C2419      F2424   1.357       .  S
C2420      C2421   1.402       .  A
C2420      H2425   1.083       .  S
C2421      C2422   1.405   1_554  A
C2422      F2426   1.358       .  S
C2423      C2428   1.403       .  A
C2423      C2432   1.403       .  A
C2428      C2429   1.395       .  A
C2428      F2433   1.358       .  S
C2429      C2430   1.409       .  A
C2429      H2434   1.083       .  S
C2430      C2431   1.412       .  A
C2431      C2432   1.398       .  A
C2431      F2435   1.357       .  S
C2432      H2436   1.083       .  S
C2437      C2438   1.404   1_554  A
C2437      C2442   1.397       .  A
C2437      H2447   1.083       .  S
C2438      C2443   1.476       .  S
C2438      C2439   1.406       .  A
C2439      C2440   1.396       .  A
C2439      F2444   1.357       .  S
C2440      C2441   1.402       .  A
C2440      H2445   1.083       .  S
C2441      C2442   1.405   1_556  A
C2442      F2446   1.358       .  S
C2443      C2448   1.404       .  A
C2443      C2452   1.401       .  A
C2448      C2449   1.396       .  A
C2448      F2453   1.358       .  S
C2449      C2450   1.408       .  A
C2449      H2454   1.083       .  S
C2450      C2451   1.412       .  A
C2451      C2452   1.397       .  A
C2451      F2455   1.357       .  S
C2452      H2456   1.083       .  S
C2457      C2458   1.403       .  A
C2457      C2462   1.395       .  A
C2457      H2467   1.083       .  S
C2458      C2463   1.470       .  S
C2458      C2459   1.406   1_556  A
C2459      C2460   1.392       .  A
C2459      F2464   1.358       .  S
C2460      C2461   1.399       .  A
C2460      H2465   1.083       .  S
C2461      C2462   1.403   1_554  A
C2462      F2466   1.358       .  S
C2463      C2468   1.402       .  A
C2463      C2472   1.401       .  A
C2468      C2469   1.395       .  A
C2468      F2473   1.358       .  S
C2469      C2470   1.410       .  A
C2469      H2474   1.083       .  S
C2470      C2471   1.410       .  A
C2471      C2472   1.393       .  A
C2471      F2475   1.357       .  S
C2472      H2476   1.084       .  S
C2477      C2478   1.403       .  A
C2477      C2482   1.396       .  A
C2477      H2487   1.083       .  S
C2478      C2483   1.473       .  S
C2478      C2479   1.404   1_554  A
C2479      C2480   1.394       .  A
C2479      F2484   1.358       .  S
C2480      C2481   1.405   1_556  A
C2480      H2485   1.084       .  S
C2481      C2482   1.406       .  A
C2482      F2486   1.358       .  S
C2483      C2488   1.406   1_554  A
C2483      C2492   1.404       .  A
C2488      C2489   1.395       .  A
C2488      F2493   1.358       .  S
C2489      C2490   1.402   1_556  A
C2489      H2494   1.083       .  S
C2490      C2491   1.403       .  A
C2491      C2492   1.395       .  A
C2491      F2495   1.357       .  S
C2492      H2496   1.083       .  S
C2497      C2502   1.398       .  A
C2497      H2507   1.083       .  S
C2498      C2503   1.494       .  S
C2498      C2499   1.407       .  A
C2499      C2500   1.404       .  A
C2499      F2504   1.357       .  S
C2500      H2505   1.083       .  S
C2501      C2502   1.411       .  A
C2502      F2506   1.357       .  S
C2503      C2512   1.409       .  A
C2508      C2509   1.396       .  A
C2508      F2513   1.358       .  S
C2509      H2514   1.083       .  S
C2510      C2511   1.413       .  A
C2511      C2512   1.410       .  A
C2511      F2515   1.357       .  S
C2512      H2516   1.083       .  S
C2517      C2522   1.405       .  A
C2517      H2527   1.083       .  S
C2518      C2523   1.486       .  S
C2518      C2519   1.403   1_545  A
C2519      C2520   1.395       .  A
C2519      F2524   1.358       .  S
C2520      H2525   1.083       .  S
C2521      C2522   1.407       .  A
C2522      F2526   1.357       .  S
C2523      C2532   1.404       .  A
C2528      C2529   1.396       .  A
C2528      F2533   1.358       .  S
C2529      H2534   1.076       .  S
C2530      C2531   1.414       .  A
C2531      C2532   1.402       .  A
C2531      F2535   1.357       .  S
C2532      H2536   1.083       .  S
C2537      C2542   1.403       .  A
C2537      H2547   1.083       .  S
C2538      C2543   1.484       .  S
C2538      C2539   1.403       .  A
C2539      C2540   1.398       .  A
C2539      F2544   1.358       .  S
C2540      C2541   1.411       .  A
C2540      H2545   1.083       .  S
C2542      F2546   1.357       .  S
C2543      C2552   1.404       .  A
C2548      C2549   1.397       .  A
C2548      F2553   1.358       .  S
C2549      H2554   1.083       .  S
C2550      C2551   1.405   1_455  A
C2551      C2552   1.402       .  A
C2551      F2555   1.357       .  S
C2552      H2556   1.083       .  S
C2557      C2562   1.401       .  A
C2557      H2567   1.082       .  S
C2558      C2563   1.493       .  S
C2558      C2559   1.408       .  A
C2559      C2560   1.402       .  A
C2559      F2564   1.357       .  S
C2560      C2561   1.402   1_655  A
C2560      H2565   1.083       .  S
C2562      F2566   1.357       .  S
C2563      C2572   1.409       .  A
C2568      C2569   1.399       .  A
C2568      F2573   1.357       .  S
C2569      H2574   1.084       .  S
C2570      C2571   1.409       .  A
C2571      C2572   1.407       .  A
C2571      F2575   1.357   1_655  S
C2572      H2576   1.083   1_655  S
C2577      C2578   1.400       .  A
C2577      C2582   1.393       .  A
C2577      H2587   1.084       .  S
C2578      C2583   1.492       .  S
C2578      C2579   1.410       .  A
C2579      C2580   1.409       .  A
C2579      F2584   1.356       .  S
C2580      C2581   1.408       .  A
C2580      H2585   1.083       .  S
C2581      C2582   1.418       .  A
C2582      F2586   1.358       .  S
C2583      C2588   1.408       .  A
C2583      C2592   1.406       .  A
C2588      C2589   1.397       .  A
C2588      F2593   1.358       .  S
C2589      C2590   1.405       .  A
C2589      H2594   1.083       .  S
C2590      C2591   1.410       .  A
C2591      C2592   1.406       .  A
C2591      F2595   1.356       .  S
C2592      H2596   1.083       .  S
C2597      C2598   1.408       .  A
C2597      C2602   1.405       .  A
C2597      H2607   1.083       .  S
C2598      C2603   1.486       .  S
C2598      C2599   1.402       .  A
C2599      C2600   1.393       .  A
C2599      F2604   1.358       .  S
C2600      C2601   1.412       .  A
C2600      H2605   1.083       .  S
C2601      C2602   1.409       .  A
C2602      F2606   1.357       .  S
C2603      C2608   1.402       .  A
C2603      C2612   1.404       .  A
C2608      C2609   1.399       .  A
C2608      F2613   1.357       .  S
C2609      C2610   1.414       .  A
C2609      H2614   1.076       .  S
C2610      C2611   1.413       .  A
C2611      C2612   1.399       .  A
C2611      F2615   1.358       .  S
C2612      H2616   1.083       .  S
C2617      C2618   1.410       .  A
C2617      C2622   1.404       .  A
C2617      H2627   1.083       .  S
C2618      C2623   1.497       .  S
C2618      C2619   1.409       .  A
C2619      C2620   1.400       .  A
C2619      F2624   1.357       .  S
C2620      C2621   1.405       .  A
C2620      H2625   1.084       .  S
C2621      C2622   1.405       .  A
C2622      F2626   1.358       .  S
C2623      C2628   1.410       .  A
C2623      C2632   1.410       .  A
C2628      C2629   1.401       .  A
C2628      F2633   1.357       .  S
C2629      C2630   1.404       .  A
C2629      H2634   1.083       .  S
C2630      C2631   1.403       .  A
C2631      C2632   1.402       .  A
C2631      F2635   1.357       .  S
C2632      H2636   1.082       .  S
C2637      C2638   1.405       .  A
C2637      C2642   1.406       .  A
C2637      H2647   1.083       .  S
C2638      C2643   1.485       .  S
C2638      C2639   1.405       .  A
C2639      C2640   1.400       .  A
C2639      F2644   1.358       .  S
C2640      C2641   1.405       .  A
C2640      H2645   1.083       .  S
C2641      C2642   1.407       .  A
C2642      F2646   1.357       .  S
C2643      C2648   1.401       .  A
C2643      C2652   1.405       .  A
C2648      C2649   1.399       .  A
C2648      F2653   1.358       .  S
C2649      C2650   1.411       .  A
C2649      H2654   1.083       .  S
C2650      C2651   1.413       .  A
C2651      C2652   1.409       .  A
C2651      F2655   1.357       .  S
C2652      H2656   1.083       .  S
C2657      C2658   1.399       .  A
C2657      C2662   1.393       .  A
C2657      H2667   1.084       .  S
C2658      C2663   1.473       .  S
C2658      C2659   1.404       .  A
C2659      C2660   1.397       .  A
C2659      F2664   1.357       .  S
C2660      C2661   1.408       .  A
C2660      H2665   1.083       .  S
C2661      C2662   1.412       .  A
C2662      F2666   1.358       .  S
C2663      C2668   1.405       .  A
C2663      C2672   1.403       .  A
C2668      C2669   1.396       .  A
C2668      F2673   1.358       .  S
C2669      C2670   1.403       .  A
C2669      H2674   1.083       .  S
C2670      C2671   1.406       .  A
C2671      C2672   1.397       .  A
C2671      F2675   1.357       .  S
C2672      H2676   1.083       .  S
C2677      C2678   1.402       .  A
C2677      C2682   1.394       .  A
C2677      H2687   1.083       .  S
C2678      C2683   1.478       .  S
C2678      C2679   1.406       .  A
C2679      C2680   1.398       .  A
C2679      F2684   1.358       .  S
C2680      C2681   1.406       .  A
C2680      H2685   1.083       .  S
C2681      C2682   1.408       .  A
C2682      F2686   1.358       .  S
C2683      C2688   1.407       .  A
C2683      C2692   1.405       .  A
C2688      C2689   1.398       .  A
C2688      F2693   1.357       .  S
C2689      C2690   1.402       .  A
C2689      H2694   1.083       .  S
C2690      C2691   1.402       .  A
C2691      C2692   1.395       .  A
C2691      F2695   1.357       .  S
C2692      H2696   1.083       .  S
C2697      C2698   1.404       .  A
C2697      C2702   1.397       .  A
C2697      H2707   1.083       .  S
C2698      C2703   1.476       .  S
C2698      C2699   1.407       .  A
C2699      C2700   1.393       .  A
C2699      F2704   1.358       .  S
C2700      C2701   1.400       .  A
C2700      H2705   1.083       .  S
C2701      C2702   1.406       .  A
C2702      F2706   1.358       .  S
C2703      C2708   1.405       .  A
C2703      C2712   1.401       .  A
C2708      C2709   1.397       .  A
C2708      F2713   1.358       .  S
C2709      C2710   1.408       .  A
C2709      H2714   1.083       .  S
C2710      C2711   1.411       .  A
C2711      C2712   1.392       .  A
C2711      F2715   1.358       .  S
C2712      H2716   1.083       .  S
C2717      C2718   1.401       .  A
C2717      C2722   1.396       .  A
C2717      H2727   1.084       .  S
C2718      C2723   1.473       .  S
C2718      C2719   1.402       .  A
C2719      C2720   1.396       .  A
C2719      F2724   1.357       .  S
C2720      C2721   1.409       .  A
C2720      H2725   1.083       .  S
C2721      C2722   1.411       .  A
C2722      F2726   1.358       .  S
C2723      C2728   1.405       .  A
C2723      C2732   1.403       .  A
C2728      C2729   1.398       .  A
C2728      F2733   1.358       .  S
C2729      C2730   1.406       .  A
C2729      H2734   1.083       .  S
C2730      C2731   1.403       .  A
C2731      C2732   1.395       .  A
C2731      F2735   1.357       .  S
C2732      H2736   1.083       .  S
C2737      C2738   1.406       .  A
C2737      C2742   1.404       .  A
C2737      H2747   1.083       .  S
C2738      C2743   1.479       .  S
C2738      C2739   1.400       .  A
C2739      C2740   1.393       .  A
C2739      F2744   1.358       .  S
C2740      C2741   1.411       .  A
C2740      H2745   1.083       .  S
C2741      C2742   1.409       .  A
C2742      F2746   1.357       .  S
C2743      C2748   1.400       .  A
C2743      C2752   1.402       .  A
C2748      C2749   1.398       .  A
C2748      F2753   1.358       .  S
C2749      C2750   1.414       .  A
C2749      H2754   1.077       .  S
C2750      C2751   1.413       .  A
C2751      C2752   1.399       .  A
C2751      F2755   1.358       .  S
C2752      H2756   1.083       .  S
C2757      C2758   1.399       .  A
C2757      C2762   1.393       .  A
C2757      H2767   1.084       .  S
C2758      C2763   1.486       .  S
C2758      C2759   1.408       .  A
C2759      C2760   1.409       .  A
C2759      F2764   1.357       .  S
C2760      C2761   1.409       .  A
C2760      H2765   1.083       .  S
C2761      C2762   1.415       .  A
C2762      F2766   1.358       .  S
C2763      C2768   1.406       .  A
C2763      C2772   1.404       .  A
C2768      C2769   1.396       .  A
C2768      F2773   1.358       .  S
C2769      C2770   1.404       .  A
C2769      H2774   1.083       .  S
C2770      C2771   1.411       .  A
C2771      C2772   1.405       .  A
C2771      F2775   1.357       .  S
C2772      H2776   1.083       .  S
C2777      C2778   1.407       .  A
C2777      C2782   1.400       .  A
C2777      H2787   1.083       .  S
C2778      C2783   1.485       .  S
C2778      C2779   1.406       .  A
C2779      C2780   1.399       .  A
C2779      F2784   1.357       .  S
C2780      C2781   1.407       .  A
C2780      H2785   1.084       .  S
C2781      C2782   1.406       .  A
C2782      F2786   1.357       .  S
C2783      C2788   1.407       .  A
C2783      C2792   1.401       .  A
C2788      C2789   1.402       .  A
C2788      F2793   1.357       .  S
C2789      C2790   1.405       .  A
C2789      H2794   1.080       .  S
C2790      C2791   1.414       .  A
C2791      C2792   1.396       .  A
C2791      F2795   1.357       .  S
C2792      H2796   1.084       .  S
C2797      C2798   1.401       .  A
C2797      C2802   1.395       .  A
C2797      H2807   1.083       .  S
C2798      C2803   1.485       .  S
C2798      C2799   1.410       .  A
C2799      C2800   1.405       .  A
C2799      F2804   1.358       .  S
C2800      C2801   1.407       .  A
C2800      H2805   1.083       .  S
C2801      C2802   1.411       .  A
C2802      F2806   1.358       .  S
C2803      C2808   1.410       .  A
C2803      C2812   1.401       .  A
C2808      C2809   1.403       .  A
C2808      F2813   1.358       .  S
C2809      C2810   1.404       .  A
C2809      H2814   1.083       .  S
C2810      C2811   1.411       .  A
C2811      C2812   1.395       .  A
C2811      F2815   1.357       .  S
C2812      H2816   1.083       .  S
