geometry optimzed in LAMMPS
_audit_creation_date              2020-12-01 
_audit_creation_method            'lammps2cif' 
_symmetry_space_group_name_H-M    'P1' 
_symmetry_Int_Tables_number       1 
_symmetry_cell_setting            triclinic 
loop_ 
_symmetry_equiv_pos_as_xyz 
  x,y,z 
_cell_length_a                    35.50503805 
_cell_length_b                    35.84392456466469 
_cell_length_c                    48.90083982827078 
_cell_angle_alpha                 90.27769058068367 
_cell_angle_beta                  89.88922086566474 
_cell_angle_gamma                 119.97778007916588 
loop_ 
_atom_site_label 
_atom_site_type_symbol 
_atom_site_fract_x 
_atom_site_fract_y 
_atom_site_fract_z 
_atom_site_charge 
O1          O  0.46811554  0.03536149  0.64082064    -0.57100
C2          C  0.06140835  0.06395625  0.70374386     0.75500
O3          O  0.46418859  0.42566172  0.68883863    -0.58300
C4          C  0.43797629  0.50137579  0.63018638     0.75500
C5          C  0.06007982  0.99434500  0.62939944     0.77900
Cd6        Cd  0.00021938  0.99829296  0.66715435     1.37500
O7          O  0.02997152  0.06666470  0.69360566    -0.57100
O8          O  0.05569689  0.02708229  0.63213439    -0.55900
C9          C  0.44554530  0.43614232  0.70699656     0.77800
O10         O  0.03564736  0.46180248  0.64430857    -0.58300
O11         O  0.06390261  0.03116466  0.69695094    -0.56700
O12         O  0.43663104  0.46667603  0.63676795    -0.56700
O13         O  0.45328700  0.47460562  0.70647670    -0.55900
N14         N  0.30864812  0.50133745  0.49850803    -0.35900
N15         N  0.24820084  0.49696667  0.45612499    -0.56500
N16         N  0.18978393  0.49467278  0.49880856    -0.35900
N17         N  0.25003054  0.49844368  0.54106649    -0.56500
C18         C  0.32623126  0.49340047  0.47618999     0.27700
C19         C  0.32841590  0.49639127  0.52077877     0.27700
C20         C  0.16801479  0.49652338  0.47661595     0.27700
C21         C  0.16822042  0.49608689  0.52128653     0.27700
C22         C  0.27917752  0.49800591  0.43963169     0.36300
C23         C  0.21808537  0.49779572  0.43974181     0.36300
C24         C  0.28303908  0.50356364  0.55730199     0.36300
C25         C  0.22026932  0.49996548  0.55755464     0.36300
C26         C  0.35812819  0.48423015  0.48439386    -0.21200
C27         C  0.35950318  0.48613350  0.51245073    -0.21200
C28         C  0.13171573  0.49842957  0.48517598    -0.21200
C29         C  0.13165672  0.49780572  0.51322912    -0.21200
C30         C  0.26878557  0.49955529  0.41249539    -0.22200
C31         C  0.22996066  0.49914776  0.41255384    -0.22200
C32         C  0.27426507  0.50848273  0.58428490    -0.22200
C33         C  0.23448660  0.50604339  0.58446283    -0.22200
C34         C  0.31561623  0.49541358  0.44850606    -0.17600
C35         C  0.31989078  0.50148703  0.54847199    -0.17600
C36         C  0.18076544  0.49686756  0.54893001    -0.17600
C37         C  0.17984345  0.49706239  0.44880149    -0.17600
H38         H  0.37834274  0.47678622  0.47150023     0.15300
H39         H  0.38086733  0.48034332  0.52526337     0.15300
H40         H  0.10779623  0.50049554  0.47258178     0.15300
H41         H  0.10762370  0.49920039  0.52616250     0.15300
H42         H  0.28686696  0.50016381  0.39449219     0.13600
H43         H  0.21244484  0.49954655  0.39457385     0.13600
H44         H  0.29424974  0.51302421  0.60206078     0.13600
H45         H  0.21814623  0.50890436  0.60237930     0.13600
H46         H  0.28780106  0.51370076  0.49841257     0.26900
H47         H  0.21665970  0.49085542  0.49869619     0.26900
O48         O  0.03890860  0.07438440  0.31224859    -0.57100
C49         C  0.06002702  0.49854984  0.36979720     0.75500
O50         O  0.42710438  0.46567578  0.35299199    -0.58300
C51         C  0.50831118  0.06686528  0.29602291     0.75500
C52         C  0.99390812  0.43489965  0.29591662     0.77900
Cd53       Cd  0.00007112  0.50017393  0.33201833     1.37500
O54         O  0.07116608  0.03115501  0.35442137    -0.57100
O55         O  0.02962878  0.46858850  0.30118053    -0.55900
C56         C  0.43746243  0.99651387  0.37008502     0.77800
O57         O  0.46013170  0.43136698  0.30747164    -0.58300
O58         O  0.02130853  0.46782795  0.36769849    -0.56700
O59         O  0.47588365  0.02916289  0.29644847    -0.56700
O60         O  0.47625053  0.02730133  0.36934833    -0.55900
N61         N  0.00324072  0.19485880  0.16830315    -0.35900
N62         N  0.99842635  0.25039482  0.21000205    -0.56500
N63         N  0.99420010  0.30461327  0.16701515    -0.35900
N64         N  0.00401364  0.25161245  0.12537623    -0.56500
C65         C  0.01053064  0.17764732  0.19089578     0.27700
C66         C  0.00992301  0.17601278  0.14620226     0.27700
C67         C  0.99873576  0.32880317  0.18942305     0.27700
C68         C  0.00409274  0.33063895  0.14498705     0.27700
C69         C  0.99770038  0.22017708  0.22672326     0.36300
C70         C  0.99024159  0.27643274  0.22583687     0.36300
C71         C  0.99936558  0.21855860  0.10947819     0.36300
C72         C  0.99845898  0.27868781  0.10886010     0.36300
C73         C  0.02141446  0.14701582  0.18302851    -0.21200
C74         C  0.02073395  0.14575198  0.15494732    -0.21200
C75         C  0.01057035  0.37035462  0.18149914    -0.21200
C76         C  0.01451639  0.37165720  0.15356593    -0.21200
C77         C  0.98958977  0.22738534  0.25340525    -0.22200
C78         C  0.98478872  0.26301526  0.25284366    -0.22200
C79         C  0.99165390  0.22520810  0.08263557    -0.22200
C80         C  0.99088152  0.26310173  0.08228032    -0.22200
C81         C  0.00542322  0.18680754  0.21846672    -0.17600
C82         C  0.00425577  0.18360579  0.11842116    -0.17600
C83         C  0.00158703  0.31803298  0.11721751    -0.17600
C84         C  0.99191489  0.31454991  0.21686685    -0.17600
H85         H  0.02844763  0.12702931  0.19615859     0.15300
H86         H  0.02706345  0.12444767  0.14252507     0.15300
H87         H  0.01622391  0.39720915  0.19447840     0.15300
H88         H  0.02369425  0.39968144  0.14099398     0.15300
H89         H  0.98771723  0.20914145  0.27143859     0.13600
H90         H  0.97898029  0.27791418  0.27042566     0.13600
H91         H  0.98726544  0.20505845  0.06501720     0.13600
H92         H  0.98535013  0.27747092  0.06444217     0.13600
H93         H  0.99011834  0.21490218  0.16790009     0.26900
H94         H  0.98069187  0.27142132  0.16665856     0.26900
O95         O  0.43208298  0.47037450  0.97623589    -0.57100
C96         C  0.00345100  0.06230315  0.03892204     0.75500
O97         O  0.03853401  0.46332430  0.02241096    -0.58300
C98         C  0.43622873  0.44192455  0.96322748     0.75500
C99         C  0.06674460  0.05883399  0.96181916     0.77900
Cd100      Cd  0.50360092  0.50088553  0.00030593     1.37500
O101        O  0.47071239  0.03927774  0.02395052    -0.57100
O102        O  0.03095686  0.05712363  0.96667588    -0.55900
C103        C  0.50599146  0.43993025  0.03760618     0.77800
O104        O  0.07451089  0.03326209  0.97531546    -0.58300
O105        O  0.03539090  0.05613767  0.03631579    -0.56700
O106        O  0.47121825  0.44150378  0.96712344    -0.56700
O107        O  0.47354853  0.44539555  0.03535218    -0.55900
N108        N  0.19083003  0.19582210  0.83177146    -0.35900
N109        N  0.25180869  0.25303432  0.79140546    -0.56500
N110        N  0.30445316  0.31190779  0.83539638    -0.35900
N111        N  0.24700742  0.25143812  0.87583889    -0.56500
C112        C  0.17346308  0.17207789  0.80883827     0.27700
C113        C  0.17344250  0.16900726  0.85332393     0.27700
C114        C  0.33232798  0.32863408  0.81411334     0.27700
C115        C  0.32752440  0.33012473  0.85847884     0.27700
C116        C  0.21939591  0.22686586  0.77419390     0.36300
C117        C  0.28174306  0.28578036  0.77612498     0.36300
C118        C  0.21371601  0.22164882  0.89095446     0.36300
C119        C  0.27141759  0.28493825  0.89277529     0.36300
C120        C  0.14401073  0.12989780  0.81590383    -0.21200
C121        C  0.14429063  0.12786393  0.84391762    -0.21200
C122        C  0.37335474  0.35826656  0.82380917    -0.21200
C123        C  0.37027459  0.35935413  0.85174083    -0.21200
C124        C  0.22901995  0.24277426  0.74779627    -0.22200
C125        C  0.26857215  0.28007115  0.74900215    -0.22200
C126        C  0.21726285  0.23612113  0.91769646    -0.22200
C127        C  0.25374618  0.27626536  0.91882098    -0.22200
C128        C  0.18254395  0.18744968  0.78167553    -0.17600
C129        C  0.18092317  0.18094520  0.88130003    -0.17600
C130        C  0.31107096  0.32186560  0.88548556    -0.17600
C131        C  0.32155283  0.31995099  0.78604277    -0.17600
H132        H  0.12448612  0.10320010  0.80229694     0.15300
H133        H  0.12474058  0.09932188  0.85598543     0.15300
H134        H  0.40256800  0.37737982  0.81197659     0.15300
H135        H  0.39669919  0.37922399  0.86552123     0.15300
H136        H  0.20979102  0.22873425  0.72953518     0.13600
H137        H  0.28566315  0.30061304  0.73184897     0.13600
H138        H  0.19575380  0.21952798  0.93463646     0.13600
H139        H  0.26610340  0.29654649  0.93680949     0.13600
H140        H  0.20976838  0.22906516  0.83271260     0.26900
H141        H  0.27093750  0.29278263  0.83408411     0.26900
C142        C  0.15174873  0.14893362  0.90171619    -0.04800
C143        C  0.16754241  0.12866047  0.91898360    -0.32200
C144        C  0.14037641  0.09877893  0.93857424     0.37100
C145        C  0.09682986  0.08914536  0.94112044    -0.05100
C146        C  0.08124606  0.10929166  0.92348766    -0.32100
C147        C  0.10811798  0.13849067  0.90374243     0.37000
H148        H  0.20103212  0.13614428  0.91726016     0.17300
O149        O  0.15672579  0.07936159  0.95503861    -0.59600
H150        H  0.04784829  0.10221130  0.92480355     0.17300
O151        O  0.09173380  0.15731919  0.88676143    -0.59700
H152        H  0.07386838  0.13482801  0.87309743     0.44300
H153        H  0.17230259  0.10038989  0.96992730     0.44300
C154        C  0.40215220  0.41046496  0.94457100    -0.04800
C155        C  0.37705887  0.42261535  0.92875092    -0.32200
C156        C  0.34633391  0.39365599  0.90999260     0.37100
C157        C  0.33948196  0.35152213  0.90742624    -0.05100
C158        C  0.36359435  0.33901901  0.92375980    -0.32100
C159        C  0.39519029  0.36826334  0.94186764     0.37000
H160        H  0.38236297  0.45506388  0.93024701     0.17300
O161        O  0.32452428  0.40734227  0.89343899    -0.59600
H162        H  0.35897796  0.30688176  0.92170671     0.17300
O163        O  0.41869136  0.35504432  0.95716523    -0.59700
H164        H  0.44185545  0.35720878  0.94477943     0.44300
H165        H  0.29518187  0.39532699  0.90163899     0.44300
C166        C  0.50539212  0.40805434  0.05720782    -0.04800
C167        C  0.47092389  0.38843105  0.07598635    -0.32200
C168        C  0.46924452  0.35883994  0.09519836     0.37100
C169        C  0.50232851  0.34812275  0.09598338    -0.05100
C170        C  0.03645302  0.36702886  0.07698061    -0.32100
C171        C  0.03813204  0.39659124  0.05758002     0.37000
H172        H  0.44514047  0.39626078  0.07601903     0.17300
O173        O  0.43480551  0.34000549  0.11299218    -0.59600
H174        H  0.06211410  0.35902874  0.07739054     0.17300
O175        O  0.07190124  0.41402458  0.03929483    -0.59700
H176        H  0.06134457  0.39464654  0.02312105     0.44300
H177        H  0.43885753  0.36317162  0.12589502     0.44300
C178        C  0.00415090  0.15335121  0.09734828    -0.04800
C179        C  0.04311965  0.15479399  0.09024745    -0.32200
C180        C  0.04347350  0.12564090  0.07119525     0.37100
C181        C  0.00434982  0.09452769  0.05859377    -0.05100
C182        C  0.46562471  0.09408671  0.06528662    -0.32100
C183        C  0.46525887  0.12272642  0.08475243     0.37000
H184        H  0.07331402  0.17831060  0.09982974     0.17300
O185        O  0.08225461  0.12773620  0.06525553    -0.59600
H186        H  0.43521694  0.07068695  0.05589504     0.17300
O187        O  0.42666262  0.12064473  0.09125160    -0.59700
H188        H  0.41672614  0.10341759  0.10825574     0.44300
H189        H  0.09601885  0.15038319  0.05111427     0.44300
C190        C  0.50876062  0.09970543  0.27748282    -0.04800
C191        C  0.47004520  0.08980635  0.26377688    -0.32200
C192        C  0.46866132  0.11846289  0.24519544     0.37100
C193        C  0.50625847  0.15791793  0.23991866    -0.05100
C194        C  0.04470520  0.16892119  0.25406342    -0.32100
C195        C  0.04610706  0.14011258  0.27286150     0.37000
H196        H  0.44053858  0.05941901  0.26724658     0.17300
O197        O  0.43032672  0.10765780  0.23219131    -0.59600
H198        H  0.07381622  0.19947323  0.25017493     0.17300
O199        O  0.08451012  0.15119008  0.28586074    -0.59700
H200        H  0.08581897  0.16936539  0.30159596     0.44300
H201        H  0.42994889  0.09131407  0.21566933     0.44300
C202        C  0.99215447  0.40197412  0.27694285    -0.04800
C203        C  0.03138479  0.40530204  0.26804022    -0.32200
C204        C  0.03135624  0.37639521  0.24889913     0.37100
C205        C  0.99187260  0.34402713  0.23801803    -0.05100
C206        C  0.45265520  0.33974362  0.24716700    -0.32100
C207        C  0.45238318  0.36828569  0.26667500     0.37000
H208        H  0.06231041  0.43060425  0.27575878     0.17300
O209        O  0.07011431  0.38070937  0.24026465    -0.59600
H210        H  0.42217701  0.31441586  0.23892425     0.17300
O211        O  0.41328432  0.36319924  0.27523215    -0.59700
H212        H  0.40706480  0.38109777  0.26267103     0.44300
H213        H  0.07506531  0.36119951  0.25212412     0.44300
C214        C  0.14993651  0.49720327  0.42773919    -0.04800
C215        C  0.11022130  0.45956039  0.42290944    -0.32200
C216        C  0.08043159  0.45939567  0.40420470     0.37100
C217        C  0.09072064  0.49723329  0.38956329    -0.05100
C218        C  0.13115201  0.03571777  0.39440408    -0.32100
C219        C  0.16082585  0.03615772  0.41329447     0.37000
H220        H  0.10207457  0.43042709  0.43406213     0.17300
O221        O  0.04170123  0.42198166  0.40025586    -0.59600
H222        H  0.13914088  0.06525451  0.38382569     0.17300
O223        O  0.19869682  0.07389038  0.41844432    -0.59700
H224        H  0.21782117  0.07791493  0.40259361     0.44300
H225        H  0.02195417  0.42221802  0.41455153     0.44300
C226        C  0.34529891  0.49510077  0.42740051    -0.04800
C227        C  0.38323233  0.53365429  0.42144739    -0.32200
C228        C  0.41551862  0.03397698  0.40476152     0.37100
C229        C  0.40600273  0.99636007  0.38991290    -0.05100
C230        C  0.36609810  0.95845181  0.39428401    -0.32100
C231        C  0.33683148  0.45681348  0.41411584     0.37000
H232        H  0.38971961  0.56323068  0.43159630     0.17300
O233        O  0.45359828  0.07195570  0.40069739    -0.59600
H234        H  0.35820382  0.92919041  0.38319934     0.17300
O235        O  0.29961058  0.41875959  0.41963695    -0.59700
H236        H  0.30641624  0.40729582  0.43617378     0.44300
H237        H  0.47210622  0.07510121  0.41669516     0.44300
C238        C  0.09189995  0.99453032  0.60968202    -0.04800
C239        C  0.11977312  0.03297279  0.59581864    -0.32200
C240        C  0.14926975  0.03443830  0.57635326     0.37100
C241        C  0.15103141  0.99707889  0.57019341    -0.05100
C242        C  0.12374356  0.45809572  0.58433624    -0.32100
C243        C  0.09468321  0.95732436  0.60397618     0.37000
H244        H  0.11864238  0.06211954  0.59993447     0.17300
O245        O  0.17560338  0.07226338  0.56295530    -0.59600
H246        H  0.12492732  0.42912706  0.57962979     0.17300
O247        O  0.06811634  0.41862849  0.61721000    -0.59700
H248        H  0.04153788  0.40364555  0.60579524     0.44300
H249        H  0.20265396  0.08680519  0.57397542     0.44300
C250        C  0.35005086  0.50200158  0.56977299    -0.04800
C251        C  0.33801303  0.46500423  0.58534339    -0.32200
C252        C  0.36596188  0.46460836  0.60537978     0.37100
C253        C  0.40662651  0.50183902  0.61032208    -0.05100
C254        C  0.41787206  0.03867280  0.59488245    -0.32100
C255        C  0.38986293  0.03874254  0.57470493     0.37000
H256        H  0.30686361  0.43626711  0.58182389     0.17300
O257        O  0.35268362  0.42799192  0.62050389    -0.59600
H258        H  0.44923295  0.06736089  0.59786930     0.17300
O259        O  0.40256260  0.07489426  0.55919802    -0.59700
H260        H  0.39930366  0.09537869  0.57130275     0.44300
H261        H  0.35855742  0.40876639  0.60882989     0.44300
C262        C  0.41533783  0.40570129  0.72760572    -0.04800
C263        C  0.39295232  0.41968944  0.74475342    -0.32200
C264        C  0.36239465  0.39194259  0.76357806     0.37100
C265        C  0.35389952  0.34941959  0.76585971    -0.05100
C266        C  0.37659897  0.33525719  0.74923893    -0.32100
C267        C  0.40732029  0.36311684  0.73021786     0.37000
H268        H  0.39855690  0.45222913  0.74335184     0.17300
O269        O  0.34097494  0.40669113  0.77978703    -0.59600
H270        H  0.37044688  0.30256643  0.75108120     0.17300
O271        O  0.42881245  0.34822599  0.71421453    -0.59700
H272        H  0.45472532  0.35372350  0.72500897     0.44300
H273        H  0.31484462  0.40100783  0.76917933     0.44300
C274        C  0.15305684  0.15877051  0.75986653    -0.04800
C275        C  0.16401431  0.13164628  0.74551844    -0.32200
C276        C  0.13451994  0.10069097  0.72723327     0.37100
C277        C  0.09352803  0.09708538  0.72261473    -0.05100
C278        C  0.08309297  0.12505749  0.73664167    -0.32100
C279        C  0.11243691  0.15554205  0.75526247     0.37000
H280        H  0.19510064  0.13369974  0.74912810     0.17300
O281        O  0.14639935  0.07451642  0.71375108    -0.59600
H282        H  0.05172574  0.12264967  0.73364818     0.17300
O283        O  0.10064922  0.18113751  0.76953511    -0.59700
H284        H  0.11264617  0.20817599  0.75888983     0.44300
H285        H  0.13933758  0.05046675  0.72651191     0.44300
O286        O  0.46811173  0.53545727  0.64104085    -0.57100
C287        C  0.06141589  0.56400687  0.70379251     0.75500
O288        O  0.46426725  0.92571512  0.68879003    -0.58300
C289        C  0.43765532  0.00120640  0.63025001     0.75500
C290        C  0.06015456  0.49400939  0.62957642     0.77900
Cd291      Cd  0.00025489  0.49833288  0.66718570     1.37500
O292        O  0.03011409  0.56681663  0.69352624    -0.57100
O293        O  0.05601616  0.52688130  0.63232561    -0.55900
C294        C  0.44576155  0.93628136  0.70699374     0.77800
O295        O  0.03587670  0.96215666  0.64423460    -0.58300
O296        O  0.06374555  0.53106410  0.69716673    -0.56700
O297        O  0.43609751  0.96648591  0.63702924    -0.56700
O298        O  0.45361201  0.97478116  0.70650893    -0.55900
N299        N  0.30855041  0.00111848  0.49878602    -0.35900
N300        N  0.24887483  0.99764003  0.45618818    -0.56500
N301        N  0.19082438  0.99673494  0.49867120    -0.35900
N302        N  0.24977589  0.99847404  0.54114034    -0.56500
C303        C  0.32563845  0.99236292  0.47655399     0.27700
C304        C  0.32733159  0.99499822  0.52113145     0.27700
C305        C  0.16840891  0.99705143  0.47639318     0.27700
C306        C  0.16815636  0.99625743  0.52107262     0.27700
C307        C  0.28034013  0.99937357  0.43985974     0.36300
C308        C  0.21958005  0.99986211  0.43974113     0.36300
C309        C  0.28290307  0.00402901  0.55740207     0.36300
C310        C  0.22049000  0.00116335  0.55745330     0.36300
C311        C  0.35613680  0.98133166  0.48488993    -0.21200
C312        C  0.35721840  0.98303170  0.51295918    -0.21200
C313        C  0.13082312  0.99660086  0.48483284    -0.21200
C314        C  0.13049233  0.99573586  0.51289417    -0.21200
C315        C  0.27103310  0.00262005  0.41274276    -0.22200
C316        C  0.23239210  0.00260836  0.41264635    -0.22200
C317        C  0.27462188  0.01021165  0.58424807    -0.22200
C318        C  0.23504117  0.00822484  0.58430286    -0.22200
C319        C  0.31608001  0.99564913  0.44884874    -0.17600
C320        C  0.31925758  0.00098120  0.54873476    -0.17600
C321        C  0.18085769  0.99766983  0.54874016    -0.17600
C322        C  0.18095892  0.99854055  0.44863830    -0.17600
H323        H  0.37568542  0.97291036  0.47206726     0.15300
H324        H  0.37765575  0.97609398  0.52588389     0.15300
H325        H  0.10620619  0.99727761  0.47217488     0.15300
H326        H  0.10555015  0.99551451  0.52576097     0.15300
H327        H  0.28967436  0.00403962  0.39483965     0.13600
H328        H  0.21558765  0.00411305  0.39461588     0.13600
H329        H  0.29477429  0.01523317  0.60201237     0.13600
H330        H  0.21901060  0.01194648  0.60209260     0.13600
H331        H  0.28914892  0.01512825  0.49860776     0.26900
H332        H  0.21968880  0.99661570  0.49865785     0.26900
O333        O  0.03894260  0.57410986  0.31181049    -0.57100
C334        C  0.06042543  0.99904751  0.36991417     0.75500
O335        O  0.42724784  0.96619660  0.35300182    -0.58300
C336        C  0.50801834  0.56687573  0.29590937     0.75500
C337        C  0.99461642  0.93513683  0.29625467     0.77900
Cd338      Cd  0.00034842  0.00032810  0.33221442     1.37500
O339        O  0.07103645  0.53062569  0.35422191    -0.57100
O340        O  0.03025369  0.96896248  0.30146316    -0.55900
C341        C  0.43693737  0.49628391  0.36976871     0.77800
O342        O  0.46077080  0.93137518  0.30779563    -0.58300
O343        O  0.02183745  0.96807323  0.36778592    -0.56700
O344        O  0.47537107  0.52931997  0.29651052    -0.56700
O345        O  0.47556562  0.52739093  0.36893199    -0.55900
N346        N  0.00359639  0.69528879  0.16833152    -0.35900
N347        N  0.99836737  0.75063217  0.20999153    -0.56500
N348        N  0.99441336  0.80486621  0.16706367    -0.35900
N349        N  0.00398329  0.75165404  0.12544780    -0.56500
C350        C  0.01145065  0.67857764  0.19095907     0.27700
C351        C  0.01098881  0.67687082  0.14627035     0.27700
C352        C  0.99946466  0.82928213  0.18944437     0.27700
C353        C  0.00454731  0.83086600  0.14501558     0.27700
C354        C  0.99734976  0.72026452  0.22669092     0.36300
C355        C  0.99014798  0.77665558  0.22581495     0.36300
C356        C  0.99952555  0.71869276  0.10953262     0.36300
C357        C  0.99832744  0.77866270  0.10893850     0.36300
C358        C  0.02350618  0.64878438  0.18317396    -0.21200
C359        C  0.02289648  0.64744355  0.15510087    -0.21200
C360        C  0.01191294  0.87096599  0.18147402    -0.21200
C361        C  0.01566662  0.87209393  0.15353583    -0.21200
C362        C  0.98894164  0.72730189  0.25333982    -0.22200
C363        C  0.98433922  0.76304856  0.25278971    -0.22200
C364        C  0.99183630  0.72535118  0.08268272    -0.22200
C365        C  0.99083772  0.76312657  0.08234954    -0.22200
C366        C  0.00559021  0.68723216  0.21848485    -0.17600
C367        C  0.00482635  0.68398485  0.11847641    -0.17600
C368        C  0.00166647  0.81808634  0.11727923    -0.17600
C369        C  0.99240419  0.81504416  0.21688575    -0.17600
H370        H  0.03118980  0.62932611  0.19635674     0.15300
H371        H  0.02993148  0.62654978  0.14277882     0.15300
H372        H  0.01804290  0.89800942  0.19440934     0.15300
H373        H  0.02517488  0.90013853  0.14091664     0.15300
H374        H  0.98695790  0.70899423  0.27136387     0.13600
H375        H  0.97855875  0.77795920  0.27037526     0.13600
H376        H  0.98776828  0.70538617  0.06502221     0.13600
H377        H  0.98540059  0.77754654  0.06450147     0.13600
H378        H  0.98938790  0.71441112  0.16790043     0.26900
H379        H  0.98042140  0.77160141  0.16672351     0.26900
O380        O  0.43217938  0.97019795  0.97636892    -0.57100
C381        C  0.00346885  0.56232717  0.03895790     0.75500
O382        O  0.03905759  0.96365747  0.02262388    -0.58300
C383        C  0.43639796  0.94183641  0.96330434     0.75500
C384        C  0.06703595  0.55907068  0.96184113     0.77900
Cd385      Cd  0.50372680  0.00088496  0.00038611     1.37500
O386        O  0.47086322  0.53964117  0.02375781    -0.57100
O387        O  0.03134342  0.55754962  0.96672929    -0.55900
C388        C  0.50642492  0.94013492  0.03766218     0.77800
O389        O  0.07460943  0.53333620  0.97530202    -0.58300
O390        O  0.03521001  0.55583635  0.03643136    -0.56700
O391        O  0.47143344  0.94149016  0.96717043    -0.56700
O392        O  0.47387874  0.94541238  0.03533538    -0.55900
N393        N  0.19109826  0.69596289  0.83169247    -0.35900
N394        N  0.25188714  0.75329578  0.79131485    -0.56500
N395        N  0.30455675  0.81220450  0.83530823    -0.35900
N396        N  0.24727591  0.75162165  0.87574789    -0.56500
C397        C  0.17374058  0.67223100  0.80875152     0.27700
C398        C  0.17384911  0.66909893  0.85323768     0.27700
C399        C  0.33238107  0.82897124  0.81400784     0.27700
C400        C  0.32765113  0.83045245  0.85837790     0.27700
C401        C  0.21943530  0.72715440  0.77412007     0.36300
C402        C  0.28172145  0.78612362  0.77604597     0.36300
C403        C  0.21402855  0.72177418  0.89086732     0.36300
C404        C  0.27161321  0.78516219  0.89267690     0.36300
C405        C  0.14443309  0.63000570  0.81580625    -0.21200
C406        C  0.14479271  0.62793618  0.84381933    -0.21200
C407        C  0.37340372  0.85867514  0.82367848    -0.21200
C408        C  0.37036647  0.85976169  0.85161401    -0.21200
C409        C  0.22892688  0.74317163  0.74774332    -0.22200
C410        C  0.26844738  0.78050643  0.74894559    -0.22200
C411        C  0.21752286  0.73626063  0.91760128    -0.22200
C412        C  0.25393177  0.77646440  0.91871880    -0.22200
C413        C  0.18268745  0.68766011  0.78159575    -0.17600
C414        C  0.18132922  0.68101138  0.88122114    -0.17600
C415        C  0.31124277  0.82212925  0.88539470    -0.17600
C416        C  0.32155014  0.82026929  0.78594634    -0.17600
H417        H  0.12494564  0.60330543  0.80219250     0.15300
H418        H  0.12534811  0.59936083  0.85588212     0.15300
H419        H  0.40258246  0.87784523  0.81182782     0.15300
H420        H  0.39679484  0.87968404  0.86537826     0.15300
H421        H  0.20963492  0.72917696  0.72949865     0.13600
H422        H  0.28545185  0.80113584  0.73180771     0.13600
H423        H  0.19603190  0.71963350  0.93454172     0.13600
H424        H  0.26624164  0.79676772  0.93670109     0.13600
H425        H  0.20991386  0.72921787  0.83265052     0.26900
H426        H  0.27104582  0.79300429  0.83401617     0.26900
C427        C  0.15214503  0.64897770  0.90163961    -0.04800
C428        C  0.16785104  0.62856306  0.91886037    -0.32200
C429        C  0.14064244  0.59869063  0.93845818     0.37100
C430        C  0.09718559  0.58931740  0.94111808    -0.05100
C431        C  0.08169594  0.60958461  0.92351522    -0.32100
C432        C  0.10855926  0.63866239  0.90371414     0.37000
H433        H  0.20128446  0.63588976  0.91707475     0.17300
O434        O  0.15683663  0.57897075  0.95477974    -0.59600
H435        H  0.04835164  0.60265541  0.92487643     0.17300
O436        O  0.09219266  0.65747479  0.88670768    -0.59700
H437        H  0.07450198  0.63502716  0.87297581     0.44300
H438        H  0.17262150  0.59988805  0.96968229     0.44300
C439        C  0.40236584  0.91044369  0.94459140    -0.04800
C440        C  0.37711194  0.92259151  0.92893662    -0.32200
C441        C  0.34638491  0.89372566  0.91014154     0.37100
C442        C  0.33970797  0.85168923  0.90735653    -0.05100
C443        C  0.36400648  0.83918573  0.92350923    -0.32100
C444        C  0.39558246  0.86833378  0.94166853     0.37000
H445        H  0.38226258  0.95496813  0.93060396     0.17300
O446        O  0.32433212  0.90738586  0.89379667    -0.59600
H447        H  0.35952198  0.80712003  0.92128887     0.17300
O448        O  0.41921514  0.85509436  0.95680993    -0.59700
H449        H  0.44251891  0.85766234  0.94439712     0.44300
H450        H  0.29561371  0.89654228  0.90267727     0.44300
C451        C  0.50584257  0.90831410  0.05728285    -0.04800
C452        C  0.47146365  0.88890410  0.07613371    -0.32200
C453        C  0.46969321  0.85928281  0.09533888     0.37100
C454        C  0.50255982  0.84826109  0.09601020    -0.05100
C455        C  0.03676815  0.86715518  0.07715799    -0.32100
C456        C  0.03860267  0.89681537  0.05778706     0.37000
H457        H  0.44582517  0.89693891  0.07623598     0.17300
O458        O  0.43538647  0.84074052  0.11324567    -0.59600
H459        H  0.06240439  0.85912217  0.07762698     0.17300
O460        O  0.07252567  0.91436976  0.03961717    -0.59700
H461        H  0.06250170  0.89452803  0.02366118     0.44300
H462        H  0.43977601  0.86401118  0.12616085     0.44300
C463        C  0.00461223  0.65357999  0.09744313    -0.04800
C464        C  0.04333523  0.65419948  0.09076914    -0.32200
C465        C  0.04349541  0.62481467  0.07183479     0.37100
C466        C  0.00450278  0.59452605  0.05871523    -0.05100
C467        C  0.46606070  0.59486508  0.06488131    -0.32100
C468        C  0.46579951  0.62355561  0.08435063     0.37000
H469        H  0.07347065  0.67717394  0.10065886     0.17300
O470        O  0.08194813  0.62581928  0.06657049    -0.59600
H471        H  0.43573941  0.57202691  0.05514547     0.17300
O472        O  0.42739371  0.62214377  0.09045895    -0.59700
H473        H  0.41640946  0.60412340  0.10709495     0.44300
H474        H  0.09646060  0.64809339  0.05228895     0.44300
C475        C  0.50860155  0.59978635  0.27736650    -0.04800
C476        C  0.46990830  0.59012512  0.26371359    -0.32200
C477        C  0.46870817  0.61887116  0.24512046     0.37100
C478        C  0.50644141  0.65821004  0.23983214    -0.05100
C479        C  0.04484658  0.66893487  0.25384579    -0.32100
C480        C  0.04611980  0.64004598  0.27262710     0.37000
H481        H  0.44029787  0.55984316  0.26721336     0.17300
O482        O  0.43043573  0.60824149  0.23209189    -0.59600
H483        H  0.07411534  0.69927678  0.24979387     0.17300
O484        O  0.08461173  0.65078660  0.28538566    -0.59700
H485        H  0.08603579  0.66856771  0.30138062     0.44300
H486        H  0.43037492  0.59255273  0.21531329     0.44300
C487        C  0.99295636  0.90232005  0.27721688    -0.04800
C488        C  0.03221591  0.90652027  0.26757705    -0.32200
C489        C  0.03214126  0.87774068  0.24831073     0.37100
C490        C  0.99255328  0.84461574  0.23804284    -0.05100
C491        C  0.45316263  0.83941930  0.24782369    -0.32100
C492        C  0.45301149  0.86789429  0.26742642     0.37000
H493        H  0.06318656  0.93242209  0.27479281     0.17300
O494        O  0.07090773  0.88291873  0.23894767    -0.59600
H495        H  0.42260236  0.81358261  0.24003432     0.17300
O496        O  0.41393898  0.86206853  0.27666034    -0.59700
H497        H  0.40665411  0.87934568  0.26424309     0.44300
H498        H  0.07687728  0.86382279  0.25052843     0.44300
C499        C  0.15106303  0.99839182  0.42747871    -0.04800
C500        C  0.11169826  0.96044158  0.42246366    -0.32200
C501        C  0.08161182  0.96006804  0.40393515     0.37100
C502        C  0.09132560  0.99797762  0.38958562    -0.05100
C503        C  0.13085352  0.53468360  0.39425445    -0.32100
C504        C  0.16026023  0.53490678  0.41328483     0.37000
H505        H  0.10397893  0.93126290  0.43342453     0.17300
O506        O  0.04315888  0.92240363  0.39988046    -0.59600
H507        H  0.13929468  0.56417076  0.38346540     0.17300
O508        O  0.19844307  0.57239363  0.41829967    -0.59700
H509        H  0.21759038  0.57574865  0.40259209     0.44300
H510        H  0.02335235  0.92205849  0.41434280     0.44300
C511        C  0.34604776  0.99540805  0.42792771    -0.04800
C512        C  0.38545077  0.03326503  0.42344621    -0.32200
C513        C  0.41327260  0.53441188  0.40272733     0.37100
C514        C  0.40522286  0.49610059  0.38936959    -0.05100
C515        C  0.36663054  0.45750159  0.39506137    -0.32100
C516        C  0.33628736  0.95777067  0.41332282     0.37000
H517        H  0.39301839  0.06232790  0.43468308     0.17300
O518        O  0.44982970  0.57303153  0.39713152    -0.59600
H519        H  0.35985768  0.42774281  0.38506074     0.17300
O520        O  0.29776854  0.92035279  0.41754073    -0.59700
H521        H  0.30346512  0.90604651  0.43301358     0.44300
H522        H  0.46974895  0.57843656  0.41273329     0.44300
C523        C  0.09204500  0.49408987  0.60995334    -0.04800
C524        C  0.12046348  0.53265292  0.59638275    -0.32200
C525        C  0.14996528  0.53403568  0.57695264     0.37100
C526        C  0.15110867  0.49643483  0.57047038    -0.05100
C527        C  0.12414737  0.95884870  0.58430004    -0.32100
C528        C  0.09434581  0.45668058  0.60402518     0.37000
H529        H  0.11973893  0.56195973  0.60069525     0.17300
O530        O  0.17679795  0.57200905  0.56384427    -0.59600
H531        H  0.12575935  0.93004862  0.57979790     0.17300
O532        O  0.06888976  0.91938428  0.61739312    -0.59700
H533        H  0.04300320  0.90325106  0.60553369     0.44300
H534        H  0.20477870  0.58469385  0.57389115     0.44300
C535        C  0.34938376  0.00159899  0.57006214    -0.04800
C536        C  0.33712159  0.96489396  0.58597899    -0.32200
C537        C  0.36519698  0.96457525  0.60595142     0.37100
C538        C  0.40618302  0.00161080  0.61047752    -0.05100
C539        C  0.41812589  0.53916120  0.59504961    -0.32100
C540        C  0.39023712  0.53931984  0.57480471     0.37000
H541        H  0.30573771  0.93631203  0.58275393     0.17300
O542        O  0.35175476  0.92825889  0.62141816    -0.59600
H543        H  0.44925193  0.56800626  0.59834560     0.17300
O544        O  0.40278221  0.57574295  0.55961413    -0.59700
H545        H  0.39896459  0.59574683  0.57185218     0.44300
H546        H  0.35670666  0.90836608  0.60979027     0.44300
C547        C  0.41551644  0.90588113  0.72758774    -0.04800
C548        C  0.39311047  0.91992401  0.74467374    -0.32200
C549        C  0.36240816  0.89218860  0.76342592     0.37100
C550        C  0.35388275  0.84966565  0.76574974    -0.05100
C551        C  0.37656412  0.83543162  0.74917522    -0.32100
C552        C  0.40736141  0.86325073  0.73017751     0.37000
H553        H  0.39876617  0.95248019  0.74325141     0.17300
O554        O  0.34084836  0.90693423  0.77950415    -0.59600
H555        H  0.37033017  0.80271409  0.75102801     0.17300
O556        O  0.42874604  0.84827031  0.71414598    -0.59700
H557        H  0.45382651  0.85230916  0.72530159     0.44300
H558        H  0.31470082  0.90105909  0.76884470     0.44300
C559        C  0.15318587  0.65897996  0.75979005    -0.04800
C560        C  0.16413764  0.63186121  0.74542809    -0.32200
C561        C  0.13459383  0.60084281  0.72719073     0.37100
C562        C  0.09358149  0.59720504  0.72260875    -0.05100
C563        C  0.08317692  0.62521548  0.73661465    -0.32100
C564        C  0.11254774  0.65572734  0.75521351     0.37000
H565        H  0.19524226  0.63394102  0.74900946     0.17300
O566        O  0.14643324  0.57462328  0.71372631    -0.59600
H567        H  0.05179587  0.62278567  0.73364217     0.17300
O568        O  0.10074820  0.68129209  0.76951215    -0.59700
H569        H  0.11311345  0.70851543  0.75903548     0.44300
H570        H  0.13951790  0.55067678  0.72654556     0.44300
O571        O  0.96733292  0.03501050  0.64137570    -0.57100
C572        C  0.56127359  0.06389064  0.70375563     0.75500
O573        O  0.96415413  0.42568914  0.68879574    -0.58300
C574        C  0.93800032  0.50146521  0.63020235     0.75500
C575        C  0.55979847  0.99374127  0.62942064     0.77900
Cd576      Cd  0.50014135  0.99825757  0.66709925     1.37500
O577        O  0.52987381  0.06662920  0.69358166    -0.57100
O578        O  0.55612855  0.02684768  0.63241815    -0.55900
C579        C  0.94560291  0.43619870  0.70700020     0.77800
O580        O  0.53566987  0.46178213  0.64432533    -0.58300
O581        O  0.56373834  0.03107330  0.69698292    -0.56700
O582        O  0.93664960  0.46675842  0.63677085    -0.56700
O583        O  0.95344493  0.47469743  0.70653333    -0.55900
N584        N  0.80869110  0.50129891  0.49847778    -0.35900
N585        N  0.74823135  0.49684533  0.45609241    -0.56500
N586        N  0.68974606  0.49447755  0.49877667    -0.35900
N587        N  0.75003227  0.49839174  0.54103647    -0.56500
C588        C  0.82633570  0.49341604  0.47616755     0.27700
C589        C  0.82853591  0.49649662  0.52075867     0.27700
C590        C  0.66802236  0.49638341  0.47657669     0.27700
C591        C  0.66818655  0.49593165  0.52124826     0.27700
C592        C  0.77920553  0.49787456  0.43959957     0.36300
C593        C  0.71812285  0.49768560  0.43970868     0.36300
C594        C  0.78306968  0.50358245  0.55727101     0.36300
C595        C  0.72024277  0.49986774  0.55752419     0.36300
C596        C  0.85835164  0.48442648  0.48438727    -0.21200
C597        C  0.85973765  0.48638776  0.51244455    -0.21200
C598        C  0.63173857  0.49832783  0.48512330    -0.21200
C599        C  0.63165311  0.49769428  0.51317646    -0.21200
C600        C  0.76881517  0.49942690  0.41246270    -0.22200
C601        C  0.73000463  0.49905134  0.41252120    -0.22200
C602        C  0.77428306  0.50850152  0.58425191    -0.22200
C603        C  0.73447147  0.50598842  0.58443002    -0.22200
C604        C  0.81567182  0.49532978  0.44847730    -0.17600
C605        C  0.81997344  0.50158775  0.54844786    -0.17600
C606        C  0.68072331  0.49673684  0.54889778    -0.17600
C607        C  0.67987931  0.49694869  0.44876586    -0.17600
H608        H  0.87864543  0.47707510  0.47150422     0.15300
H609        H  0.88119127  0.48074074  0.52526613     0.15300
H610        H  0.60785305  0.50043633  0.47251863     0.15300
H611        H  0.60763128  0.49912696  0.52609985     0.15300
H612        H  0.78690101  0.50004269  0.39445993     0.13600
H613        H  0.71250211  0.49948477  0.39454339     0.13600
H614        H  0.79428770  0.51310277  0.60202709     0.13600
H615        H  0.71812378  0.50884430  0.60234425     0.13600
H616        H  0.78773117  0.51352569  0.49837270     0.26900
H617        H  0.71657312  0.49057680  0.49866772     0.26900
O618        O  0.53912955  0.07430066  0.31226546    -0.57100
C619        C  0.55999204  0.49844849  0.36983483     0.75500
O620        O  0.92720217  0.46569799  0.35292799    -0.58300
C621        C  0.00819899  0.06680652  0.29587724     0.75500
C622        C  0.49375434  0.43476405  0.29601332     0.77900
Cd623      Cd  0.49999193  0.50008932  0.33210055     1.37500
O624        O  0.57093082  0.03066929  0.35459588    -0.57100
O625        O  0.52947927  0.46840280  0.30134497    -0.55900
C626        C  0.93730526  0.99655542  0.36987539     0.77800
O627        O  0.96032011  0.43146023  0.30744910    -0.58300
O628        O  0.52126161  0.46773712  0.36776743    -0.56700
O629        O  0.97591537  0.02901096  0.29619799    -0.56700
O630        O  0.97597714  0.02756493  0.36907493    -0.55900
N631        N  0.50307725  0.19469468  0.16834838    -0.35900
N632        N  0.49854778  0.25037344  0.21006350    -0.56500
N633        N  0.49462865  0.30478881  0.16710798    -0.35900
N634        N  0.50427088  0.25172690  0.12544743    -0.56500
C635        C  0.51037642  0.17746660  0.19093107     0.27700
C636        C  0.50984614  0.17592752  0.14623766     0.27700
C637        C  0.49915547  0.32896169  0.18952158     0.27700
C638        C  0.50450300  0.33081759  0.14508413     0.27700
C639        C  0.49783201  0.22015966  0.22678482     0.36300
C640        C  0.49059248  0.27654582  0.22592633     0.36300
C641        C  0.49947181  0.21862167  0.10954332     0.36300
C642        C  0.49870484  0.27881583  0.10894924     0.36300
C643        C  0.52127964  0.14685572  0.18304471    -0.21200
C644        C  0.52066552  0.14566546  0.15495999    -0.21200
C645        C  0.51101658  0.37052512  0.18160887    -0.21200
C646        C  0.51494600  0.37183739  0.15367086    -0.21200
C647        C  0.48996680  0.22750891  0.25349180    -0.22200
C648        C  0.48529862  0.26321554  0.25294751    -0.22200
C649        C  0.49166492  0.22525199  0.08271875    -0.22200
C650        C  0.49097976  0.26318756  0.08237891    -0.22200
C651        C  0.50539853  0.18669509  0.21851155    -0.17600
C652        C  0.50429364  0.18362438  0.11846116    -0.17600
C653        C  0.50189625  0.31818468  0.11731459    -0.17600
C654        C  0.49227294  0.31467044  0.21695755    -0.17600
H655        H  0.52835578  0.12688886  0.19616403     0.15300
H656        H  0.52709441  0.12445125  0.14251282     0.15300
H657        H  0.51667470  0.39737054  0.19459934     0.15300
H658        H  0.52409708  0.39985660  0.14109903     0.15300
H659        H  0.48818544  0.20931638  0.27153203     0.13600
H660        H  0.47969749  0.27822917  0.27054994     0.13600
H661        H  0.48712400  0.20504317  0.06510652     0.13600
H662        H  0.48538223  0.27754416  0.06455942     0.13600
H663        H  0.48993093  0.21472123  0.16795131     0.26900
H664        H  0.48109705  0.27159716  0.16674171     0.26900
O665        O  0.93215861  0.47040128  0.97619818    -0.57100
C666        C  0.50355904  0.06251188  0.03885589     0.75500
O667        O  0.53839632  0.46324533  0.02245841    -0.58300
C668        C  0.93633434  0.44198263  0.96317353     0.75500
C669        C  0.56671482  0.05894351  0.96183307     0.77900
Cd670      Cd  0.00367912  0.50094688  0.00028818     1.37500
O671        O  0.97070028  0.03922665  0.02390798    -0.57100
O672        O  0.53091492  0.05721305  0.96668411    -0.55900
C673        C  0.00610568  0.43999457  0.03753807     0.77800
O674        O  0.57448479  0.03336738  0.97532383    -0.58300
O675        O  0.53556340  0.05646275  0.03616930    -0.56700
O676        O  0.97134508  0.44160071  0.96706037    -0.56700
O677        O  0.97365706  0.44544386  0.03526365    -0.55900
N678        N  0.69079034  0.19586362  0.83176162    -0.35900
N679        N  0.75177078  0.25303027  0.79137474    -0.56500
N680        N  0.80449173  0.31190269  0.83535607    -0.35900
N681        N  0.74704744  0.25147179  0.87581638    -0.56500
C682        C  0.67340829  0.17209954  0.80883623     0.27700
C683        C  0.67340145  0.16907120  0.85332445     0.27700
C684        C  0.83232592  0.32866229  0.81405720     0.27700
C685        C  0.82758394  0.33014288  0.85842874     0.27700
C686        C  0.71934799  0.22684625  0.77417122     0.36300
C687        C  0.78170219  0.28576749  0.77608472     0.36300
C688        C  0.71374401  0.22171836  0.89094126     0.36300
C689        C  0.77150987  0.28496132  0.89274829     0.36300
C690        C  0.64394529  0.12993062  0.81591821    -0.21200
C691        C  0.64423387  0.12792331  0.84393293    -0.21200
C692        C  0.87335086  0.35834310  0.82373406    -0.21200
C693        C  0.87030871  0.35942320  0.85166878    -0.21200
C694        C  0.72896530  0.24273417  0.74776906    -0.22200
C695        C  0.76851811  0.28003464  0.74896393    -0.22200
C696        C  0.71733696  0.23620209  0.91768392    -0.22200
C697        C  0.75386251  0.27631473  0.91880010    -0.22200
C698        C  0.68248469  0.18744067  0.78166573    -0.17600
C699        C  0.68090266  0.18103060  0.88129739    -0.17600
C700        C  0.81116908  0.32187111  0.88544533    -0.17600
C701        C  0.82151572  0.31995946  0.78599026    -0.17600
H702        H  0.62440933  0.10322169  0.80232165     0.15300
H703        H  0.62468286  0.09939402  0.85601115     0.15300
H704        H  0.90253854  0.37749564  0.81188777     0.15300
H705        H  0.89673998  0.37932803  0.86543592     0.15300
H706        H  0.70972778  0.22868175  0.72951267     0.13600
H707        H  0.78559969  0.30056542  0.73180461     0.13600
H708        H  0.69583071  0.21963732  0.93463041     0.13600
H709        H  0.76625671  0.29659686  0.93678583     0.13600
H710        H  0.70974124  0.22910696  0.83269262     0.26900
H711        H  0.77098106  0.29273293  0.83405983     0.26900
C712        C  0.65172666  0.14904506  0.90172628    -0.04800
C713        C  0.66752702  0.12880128  0.91901239    -0.32200
C714        C  0.64036699  0.09893960  0.93861656     0.37100
C715        C  0.59680979  0.08927743  0.94114430    -0.05100
C716        C  0.58122128  0.10940547  0.92349800    -0.32100
C717        C  0.60809420  0.13859881  0.90374875     0.37000
H718        H  0.70102012  0.13629346  0.91729524     0.17300
O719        O  0.65671801  0.07954666  0.95510395    -0.59600
H720        H  0.54781812  0.10231084  0.92480466     0.17300
O721        O  0.59170820  0.15741534  0.88675887    -0.59700
H722        H  0.57387919  0.13492963  0.87308303     0.44300
H723        H  0.67313217  0.10097534  0.96963881     0.44300
C724        C  0.90226438  0.41050897  0.94451542    -0.04800
C725        C  0.87710689  0.42261693  0.92872497    -0.32200
C726        C  0.84636872  0.39363910  0.90997943     0.37100
C727        C  0.83959616  0.35153691  0.90737859    -0.05100
C728        C  0.86376458  0.33907031  0.92368620    -0.32100
C729        C  0.89534916  0.36832545  0.94179728     0.37000
H730        H  0.88235887  0.45504455  0.93024189     0.17300
O731        O  0.82446619  0.40728300  0.89347466    -0.59600
H732        H  0.85918689  0.30694953  0.92161933     0.17300
O733        O  0.91886398  0.35512641  0.95709877    -0.59700
H734        H  0.94192150  0.35712264  0.94468098     0.44300
H735        H  0.79491477  0.39465004  0.90144979     0.44300
C736        C  0.00545607  0.40810653  0.05714183    -0.04800
C737        C  0.97093580  0.38850300  0.07588244    -0.32200
C738        C  0.96912636  0.35883566  0.09507261     0.37100
C739        C  0.00213845  0.34802053  0.09587992    -0.05100
C740        C  0.53656321  0.36712013  0.07703303    -0.32100
C741        C  0.53811268  0.39659865  0.05761385     0.37000
H742        H  0.94519828  0.39639776  0.07589924     0.17300
O743        O  0.93463297  0.34003043  0.11282846    -0.59600
H744        H  0.56226165  0.35917138  0.07741290     0.17300
O745        O  0.57180600  0.41401513  0.03927460    -0.59700
H746        H  0.56139108  0.39431492  0.02325171     0.44300
H747        H  0.93863298  0.36321915  0.12569553     0.44300
C748        C  0.50421841  0.15342733  0.09736167    -0.04800
C749        C  0.54323950  0.15508239  0.09012392    -0.32200
C750        C  0.54362146  0.12601247  0.07101308     0.37100
C751        C  0.50446460  0.09474459  0.05852007    -0.05100
C752        C  0.96556171  0.09406698  0.06522649    -0.32100
C753        C  0.96521449  0.12277047  0.08465340     0.37000
H754        H  0.57345247  0.17871026  0.09963325     0.17300
O755        O  0.58246182  0.12834657  0.06490782    -0.59600
H756        H  0.93517870  0.07078039  0.05575550     0.17300
O757        O  0.92666215  0.12086813  0.09103176    -0.59700
H758        H  0.91644414  0.10344773  0.10794836     0.44300
H759        H  0.59576602  0.15065109  0.05052545     0.44300
C760        C  0.00863702  0.09962797  0.27733198    -0.04800
C761        C  0.96998074  0.08969648  0.26353932    -0.32200
C762        C  0.96862876  0.11843083  0.24500485     0.37100
C763        C  0.00619990  0.15797757  0.23986329    -0.05100
C764        C  0.54482867  0.16885906  0.25404421    -0.32100
C765        C  0.54626499  0.14012007  0.27289330     0.37000
H766        H  0.94050551  0.05924283  0.26691538     0.17300
O767        O  0.93035859  0.10761438  0.23191044    -0.59600
H768        H  0.57395462  0.19935722  0.25006550     0.17300
O769        O  0.58471554  0.15119201  0.28582854    -0.59700
H770        H  0.58634434  0.16980358  0.30138397     0.44300
H771        H  0.93017553  0.09146564  0.21533588     0.44300
C772        C  0.49207330  0.40186300  0.27704808    -0.04800
C773        C  0.53135000  0.40509213  0.26834882    -0.32200
C774        C  0.53146065  0.37627170  0.24919665     0.37100
C775        C  0.49207486  0.34407612  0.23810569    -0.05100
C776        C  0.95251683  0.33961566  0.24727665    -0.32100
C777        C  0.95238818  0.36823378  0.26677678     0.37000
H778        H  0.56221527  0.43025992  0.27623409     0.17300
O779        O  0.57027064  0.38049815  0.24076526    -0.59600
H780        H  0.92197227  0.31416303  0.23919510     0.17300
O781        O  0.91334271  0.36305071  0.27553723    -0.59700
H782        H  0.90681575  0.38071872  0.26296729     0.44300
H783        H  0.57514402  0.36111089  0.25279533     0.44300
C784        C  0.64998340  0.49710002  0.42770265    -0.04800
C785        C  0.61035816  0.45940244  0.42278588    -0.32200
C786        C  0.58054629  0.45923554  0.40409919     0.37100
C787        C  0.59072054  0.49713452  0.38957081    -0.05100
C788        C  0.63123700  0.03449686  0.39397904    -0.32100
C789        C  0.66087414  0.03479179  0.41283791     0.37000
H790        H  0.60229631  0.43022406  0.43385740     0.17300
O791        O  0.54191277  0.42175923  0.40004941    -0.59600
H792        H  0.63989047  0.06374227  0.38283069     0.17300
O793        O  0.69950653  0.07208255  0.41728315    -0.59700
H794        H  0.71784925  0.07510218  0.40118678     0.44300
H795        H  0.52212218  0.42173132  0.41441049     0.44300
C796        C  0.84536512  0.49503216  0.42736877    -0.04800
C797        C  0.88325168  0.53361083  0.42138197    -0.32200
C798        C  0.91400675  0.03462113  0.40314523     0.37100
C799        C  0.90569128  0.99639026  0.38955361    -0.05100
C800        C  0.86695097  0.95786952  0.39511001    -0.32100
C801        C  0.83693052  0.45675159  0.41408745     0.37000
H802        H  0.88969783  0.56318891  0.43151007     0.17300
O803        O  0.95079479  0.07315818  0.39774380    -0.59600
H804        H  0.86001384  0.92815868  0.38497114     0.17300
O805        O  0.79972416  0.41868467  0.41960692    -0.59700
H806        H  0.80659563  0.40714788  0.43608126     0.44300
H807        H  0.97017191  0.07874386  0.41368228     0.44300
C808        C  0.59157830  0.99372583  0.60975872    -0.04800
C809        C  0.62072247  0.03250948  0.59667509    -0.32200
C810        C  0.65025808  0.03389342  0.57727276     0.37100
C811        C  0.65072051  0.99609980  0.57034205    -0.05100
C812        C  0.62377183  0.45803826  0.58436571    -0.32100
C813        C  0.59307681  0.95604267  0.60331905     0.37000
H814        H  0.62057914  0.06200557  0.60136640     0.17300
O815        O  0.67783957  0.07208513  0.56463579    -0.59600
H816        H  0.62499130  0.42907667  0.57970022     0.17300
O817        O  0.56822477  0.41863282  0.61730122    -0.59700
H818        H  0.54177297  0.40343317  0.60579466     0.44300
H819        H  0.70466774  0.08529671  0.57589384     0.44300
C820        C  0.85012525  0.50212874  0.56976522    -0.04800
C821        C  0.83808546  0.46511987  0.58532320    -0.32200
C822        C  0.86600724  0.46471847  0.60537502     0.37100
C823        C  0.90666068  0.50194880  0.61033817    -0.05100
C824        C  0.91699722  0.03892658  0.59578284    -0.32100
C825        C  0.88903728  0.03910044  0.57560813     0.37000
H826        H  0.80695017  0.43637529  0.58178262     0.17300
O827        O  0.85271201  0.42809360  0.62049304    -0.59600
H828        H  0.94765641  0.06810707  0.59952020     0.17300
O829        O  0.90091014  0.07595303  0.56103818    -0.59700
H830        H  0.89638324  0.09509568  0.57365920     0.44300
H831        H  0.85861659  0.40888227  0.60882667     0.44300
C832        C  0.91536697  0.40574412  0.72759269    -0.04800
C833        C  0.89296121  0.41972307  0.74472879    -0.32200
C834        C  0.86234857  0.39195311  0.76351929     0.37100
C835        C  0.85384631  0.34942573  0.76579715    -0.05100
C836        C  0.87656124  0.33527113  0.74918505    -0.32100
C837        C  0.90731241  0.36314386  0.73018219     0.37000
H838        H  0.89857944  0.45226844  0.74333491     0.17300
O839        O  0.84087873  0.40668388  0.77969550    -0.59600
H840        H  0.87039888  0.30257606  0.75102029     0.17300
O841        O  0.92879565  0.34824995  0.71417283    -0.59700
H842        H  0.95466888  0.35367047  0.72498376     0.44300
H843        H  0.81461741  0.40072468  0.76913848     0.44300
C844        C  0.65297404  0.15874055  0.75986541    -0.04800
C845        C  0.66387399  0.13153985  0.74555893    -0.32200
C846        C  0.63435276  0.10056099  0.72729382     0.37100
C847        C  0.59339907  0.09702307  0.72263282    -0.05100
C848        C  0.58301922  0.12507090  0.73661825    -0.32100
C849        C  0.61237500  0.15555583  0.75523878     0.37000
H850        H  0.69493139  0.13354243  0.74919334     0.17300
O851        O  0.64616552  0.07428310  0.71387949    -0.59600
H852        H  0.55167827  0.12271133  0.73359968     0.17300
O853        O  0.60060207  0.18117326  0.76950024    -0.59700
H854        H  0.61317794  0.20845789  0.75907715     0.44300
H855        H  0.63903927  0.05026265  0.72667893     0.44300
O856        O  0.96813618  0.53553501  0.64106674    -0.57100
C857        C  0.56129864  0.56395603  0.70383532     0.75500
O858        O  0.96447595  0.92575494  0.68890864    -0.58300
C859        C  0.93767783  0.00091521  0.63023212     0.75500
C860        C  0.56016560  0.49397968  0.62958210     0.77900
Cd861      Cd  0.50022306  0.49828124  0.66719053     1.37500
O862        O  0.52996414  0.56672077  0.69358193    -0.57100
O863        O  0.55601386  0.52684595  0.63232482    -0.55900
C864        C  0.94570004  0.93621495  0.70698651     0.77800
O865        O  0.53495560  0.96140512  0.64395577    -0.58300
O866        O  0.56368847  0.53105501  0.69718567    -0.56700
O867        O  0.93695872  0.96638981  0.63647629    -0.56700
O868        O  0.95329781  0.97462374  0.70637919    -0.55900
N869        N  0.80859785  0.00113730  0.49868667    -0.35900
N870        N  0.74865356  0.99734853  0.45620765    -0.56500
N871        N  0.68985251  0.99462296  0.49878911    -0.35900
N872        N  0.74970212  0.99805865  0.54113522    -0.56500
C873        C  0.82650740  0.99356931  0.47639298     0.27700
C874        C  0.82822193  0.99608118  0.52098495     0.27700
C875        C  0.66860097  0.99725995  0.47657009     0.27700
C876        C  0.66844034  0.99649548  0.52121812     0.27700
C877        C  0.77961425  0.99824402  0.43975793     0.36300
C878        C  0.71848200  0.99795921  0.43976790     0.36300
C879        C  0.78249490  0.00284048  0.55744911     0.36300
C880        C  0.71978271  0.99932533  0.55759607     0.36300
C881        C  0.85845541  0.98450171  0.48464673    -0.21200
C882        C  0.85953939  0.98611052  0.51270719    -0.21200
C883        C  0.63280568  0.00014071  0.48506246    -0.21200
C884        C  0.63250284  0.99929490  0.51310125    -0.21200
C885        C  0.76919432  0.99957345  0.41259914    -0.22200
C886        C  0.73032279  0.99907028  0.41259420    -0.22200
C887        C  0.77343913  0.00731894  0.58444857    -0.22200
C888        C  0.73368356  0.00492414  0.58455897    -0.22200
C889        C  0.81606103  0.99570483  0.44869394    -0.17600
C890        C  0.81941573  0.00087765  0.54866427    -0.17600
C891        C  0.68051548  0.99662354  0.54888148    -0.17600
C892        C  0.68031818  0.99742903  0.44877673    -0.17600
H893        H  0.87888688  0.97730864  0.47178500     0.15300
H894        H  0.88087480  0.98032895  0.52555468     0.15300
H895        H  0.60936524  0.00296960  0.47243140     0.15300
H896        H  0.60873231  0.00124767  0.52598797     0.15300
H897        H  0.78727018  0.00006472  0.39462225     0.13600
H898        H  0.71277662  0.99928327  0.39458080     0.13600
H899        H  0.79322210  0.01153232  0.60227529     0.13600
H900        H  0.71716904  0.00753987  0.60246372     0.13600
H901        H  0.78756458  0.01328738  0.49858648     0.26900
H902        H  0.71596443  0.98954025  0.49870321     0.26900
O903        O  0.53898562  0.57410583  0.31196462    -0.57100
C904        C  0.55998087  0.99850686  0.37008092     0.75500
O905        O  0.92735823  0.96602982  0.35300785    -0.58300
C906        C  0.00787342  0.56690774  0.29585329     0.75500
C907        C  0.49441496  0.93494255  0.29625797     0.77900
Cd908      Cd  0.50026417  0.00017221  0.33225413     1.37500
O909        O  0.57098338  0.53051581  0.35425677    -0.57100
O910        O  0.53007502  0.96871282  0.30151644    -0.55900
C911        C  0.93701823  0.49629783  0.36970980     0.77800
O912        O  0.96098196  0.93150047  0.30784598    -0.58300
O913        O  0.52137671  0.96760513  0.36782747    -0.56700
O914        O  0.97518436  0.52938160  0.29653169    -0.56700
O915        O  0.97563793  0.52742545  0.36887479    -0.55900
N916        N  0.50373661  0.69522098  0.16829940    -0.35900
N917        N  0.49861919  0.75058780  0.21001163    -0.56500
N918        N  0.49476606  0.80494041  0.16709864    -0.35900
N919        N  0.50435681  0.75181042  0.12542905    -0.56500
C920        C  0.51128303  0.67823653  0.19090664     0.27700
C921        C  0.51077966  0.67659923  0.14621351     0.27700
C922        C  0.49967123  0.82926021  0.18950533     0.27700
C923        C  0.50490079  0.83098857  0.14507174     0.27700
C924        C  0.49768562  0.72024521  0.22669903     0.36300
C925        C  0.49040527  0.77659882  0.22585284     0.36300
C926        C  0.49973427  0.71878836  0.10950930     0.36300
C927        C  0.49868307  0.77883916  0.10894692     0.36300
C928        C  0.52274985  0.64802029  0.18307503    -0.21200
C929        C  0.52212066  0.64673590  0.15499727    -0.21200
C930        C  0.51206148  0.87094723  0.18157751    -0.21200
C931        C  0.51591430  0.87216990  0.15363913    -0.21200
C932        C  0.48935329  0.72730295  0.25336319    -0.22200
C933        C  0.48468073  0.76301004  0.25282916    -0.22200
C934        C  0.49193021  0.72542662  0.08268179    -0.22200
C935        C  0.49102500  0.76325088  0.08236825    -0.22200
C936        C  0.50574048  0.68709597  0.21845596    -0.17600
C937        C  0.50485226  0.68395880  0.11842747    -0.17600
C938        C  0.50202478  0.81826216  0.11731432    -0.17600
C939        C  0.49253433  0.81493917  0.21693419    -0.17600
H940        H  0.53007347  0.62826796  0.19622862     0.15300
H941        H  0.52878162  0.62562133  0.14262444     0.15300
H942        H  0.51807886  0.89792445  0.19454586     0.15300
H943        H  0.52538330  0.90023638  0.14104963     0.15300
H944        H  0.48739170  0.70899157  0.27138067     0.13600
H945        H  0.47888806  0.77789879  0.27042226     0.13600
H946        H  0.48764263  0.70536879  0.06503259     0.13600
H947        H  0.48546677  0.77762971  0.06454515     0.13600
H948        H  0.49006584  0.71480909  0.16788946     0.26900
H949        H  0.48080954  0.77168226  0.16672573     0.26900
O950        O  0.93219997  0.97015078  0.97635275    -0.57100
C951        C  0.50359778  0.56249129  0.03884139     0.75500
O952        O  0.53887247  0.96357196  0.02257750    -0.58300
C953        C  0.93636525  0.94172463  0.96333026     0.75500
C954        C  0.56685915  0.55894330  0.96179710     0.77900
Cd955      Cd  0.00375272  0.00080956  0.00037731     1.37500
O956        O  0.97083187  0.53964252  0.02376319    -0.57100
O957        O  0.53109935  0.55731319  0.96662202    -0.55900
C958        C  0.00653255  0.94010330  0.03762183     0.77800
O959        O  0.57449836  0.53329759  0.97531158    -0.58300
O960        O  0.53538124  0.55607415  0.03627204    -0.56700
O961        O  0.97136963  0.94132923  0.96722558    -0.56700
O962        O  0.97390939  0.94523191  0.03518907    -0.55900
N963        N  0.69102975  0.69592464  0.83171119    -0.35900
N964        N  0.75180708  0.75327929  0.79133425    -0.56500
N965        N  0.80453198  0.81210903  0.83533485    -0.35900
N966        N  0.74724324  0.75151955  0.87576870    -0.56500
C967        C  0.67363410  0.67222148  0.80876434     0.27700
C968        C  0.67376765  0.66904682  0.85324997     0.27700
C969        C  0.83236803  0.82883287  0.81403604     0.27700
C970        C  0.82765164  0.83028674  0.85840690     0.27700
C971        C  0.71933755  0.72716649  0.77414067     0.36300
C972        C  0.78165292  0.78611087  0.77607181     0.36300
C973        C  0.71400847  0.72166811  0.89089270     0.36300
C974        C  0.77160316  0.78504076  0.89270397     0.36300
C975        C  0.64429222  0.63000071  0.81581023    -0.21200
C976        C  0.64466866  0.62790406  0.84382157    -0.21200
C977        C  0.87342628  0.85842667  0.82371167    -0.21200
C978        C  0.87039768  0.85949738  0.85164914    -0.21200
C979        C  0.72882573  0.74321096  0.74776971    -0.22200
C980        C  0.76836292  0.78053166  0.74897577    -0.22200
C981        C  0.71753947  0.73612911  0.91763606    -0.22200
C982        C  0.75395362  0.77632547  0.91875420    -0.22200
C983        C  0.68258067  0.68767058  0.78161107    -0.17600
C984        C  0.68127326  0.68093212  0.88123824    -0.17600
C985        C  0.81123666  0.82199370  0.88542032    -0.17600
C986        C  0.82151915  0.82020145  0.78597327    -0.17600
H987        H  0.62476964  0.60331981  0.80219173     0.15300
H988        H  0.62520598  0.59932455  0.85587692     0.15300
H989        H  0.90262136  0.87753622  0.81186213     0.15300
H990        H  0.89684873  0.87934222  0.86541948     0.15300
H991        H  0.70952331  0.72924011  0.72952571     0.13600
H992        H  0.78537504  0.80116838  0.73184223     0.13600
H993        H  0.69606784  0.71949268  0.93458245     0.13600
H994        H  0.76629240  0.79660793  0.93674346     0.13600
H995        H  0.70988642  0.72917480  0.83267930     0.26900
H996        H  0.77100785  0.79300487  0.83404402     0.26900
C997        C  0.65206222  0.64891019  0.90165364    -0.04800
C998        C  0.66775262  0.62852688  0.91891444    -0.32200
C999        C  0.64051676  0.59866296  0.93850174     0.37100
C1000       C  0.59703348  0.58923033  0.94109993    -0.05100
C1001       C  0.58157177  0.60950653  0.92348266    -0.32100
C1002       C  0.60847716  0.63860903  0.90370385     0.37000
H1003       H  0.70119938  0.63588094  0.91717165     0.17300
O1004       O  0.65673170  0.57903899  0.95489048    -0.59600
H1005       H  0.54822422  0.60257344  0.92481931     0.17300
O1006       O  0.59215787  0.65746989  0.88670031    -0.59700
H1007       H  0.57448242  0.63505326  0.87294853     0.44300
H1008       H  0.67154877  0.59957441  0.97013682     0.44300
C1009       C  0.90231524  0.91031812  0.94462839    -0.04800
C1010       C  0.87702835  0.92244267  0.92898524    -0.32200
C1011       C  0.84632268  0.89357653  0.91017991     0.37100
C1012       C  0.83969515  0.85155889  0.90737913    -0.05100
C1013       C  0.86400743  0.83907117  0.92352782    -0.32100
C1014       C  0.89556764  0.86822247  0.94169126     0.37000
H1015       H  0.88214777  0.95480670  0.93066325     0.17300
O1016       O  0.82426118  0.90723066  0.89383554    -0.59600
H1017       H  0.85955126  0.80701765  0.92129777     0.17300
O1018       O  0.91923379  0.85500328  0.95681483    -0.59700
H1019       H  0.94253589  0.85759585  0.94439093     0.44300
H1020       H  0.79524620  0.89570107  0.90243053     0.44300
C1021       C  0.00591134  0.90830271  0.05726708    -0.04800
C1022       C  0.97133066  0.88872945  0.07596764    -0.32200
C1023       C  0.96942180  0.85904689  0.09516235     0.37100
C1024       C  0.00233743  0.84811032  0.09596543    -0.05100
C1025       C  0.53674439  0.86709546  0.07701575    -0.32100
C1026       C  0.53841827  0.89666202  0.05762759     0.37000
H1027       H  0.94562992  0.89667641  0.07595798     0.17300
O1028       O  0.93494793  0.84038380  0.11293838    -0.59600
H1029       H  0.56231046  0.85895852  0.07734460     0.17300
O1030       O  0.57207484  0.91395286  0.03925912    -0.59700
H1031       H  0.56131613  0.89461131  0.02307520     0.44300
H1032       H  0.93933606  0.86351903  0.12597094     0.44300
C1033       C  0.50466942  0.65363502  0.09735634    -0.04800
C1034       C  0.54347376  0.65452297  0.09053049    -0.32200
C1035       C  0.54369374  0.62526258  0.07151506     0.37100
C1036       C  0.50464611  0.59473546  0.05855602    -0.05100
C1037       C  0.96600312  0.59492890  0.06487370    -0.32100
C1038       C  0.96577439  0.62367890  0.08431479     0.37000
H1039       H  0.57362836  0.67763961  0.10033814     0.17300
O1040       O  0.58225994  0.62664413  0.06599871    -0.59600
H1041       H  0.93572298  0.57227285  0.05501875     0.17300
O1042       O  0.92743895  0.62252520  0.09025410    -0.59700
H1043       H  0.91638842  0.60479618  0.10700287     0.44300
H1044       H  0.59622128  0.64862659  0.05149067     0.44300
C1045       C  0.00841974  0.59982882  0.27733286    -0.04800
C1046       C  0.96969646  0.59023804  0.26374227    -0.32200
C1047       C  0.96849753  0.61903053  0.24518102     0.37100
C1048       C  0.00626544  0.65832931  0.23985788    -0.05100
C1049       C  0.54499869  0.66889429  0.25388126    -0.32100
C1050       C  0.54627623  0.64003755  0.27269243     0.37000
H1051       H  0.94006802  0.55998359  0.26726932     0.17300
O1052       O  0.93019430  0.60848772  0.23222290    -0.59600
H1053       H  0.57424244  0.69927162  0.24985761     0.17300
O1054       O  0.58474494  0.65083518  0.28550458    -0.59700
H1055       H  0.58619203  0.66877407  0.30141432     0.44300
H1056       H  0.93015042  0.59301731  0.21534058     0.44300
C1057       C  0.49276912  0.90210424  0.27724117    -0.04800
C1058       C  0.53205200  0.90601357  0.26790543    -0.32200
C1059       C  0.53205786  0.87724054  0.24866611     0.37100
C1060       C  0.49254090  0.84442640  0.23810698    -0.05100
C1061       C  0.95322478  0.83934989  0.24805101    -0.32100
C1062       C  0.95316270  0.86783698  0.26767092     0.37000
H1063       H  0.56298814  0.93167879  0.27534793     0.17300
O1064       O  0.57085655  0.88211167  0.23962653    -0.59600
H1065       H  0.92262493  0.81328631  0.24048110     0.17300
O1066       O  0.91413165  0.86173550  0.27719890    -0.59700
H1067       H  0.90632943  0.87862495  0.26478684     0.44300
H1068       H  0.57643522  0.86288476  0.25134738     0.44300
C1069       C  0.65033186  0.99739735  0.42771734    -0.04800
C1070       C  0.61013123  0.96001353  0.42351561    -0.32200
C1071       C  0.58012252  0.95980117  0.40498761     0.37100
C1072       C  0.59068854  0.99728988  0.38985975    -0.05100
C1073       C  0.63076828  0.53464479  0.39434715    -0.32100
C1074       C  0.66020216  0.53486269  0.41335455     0.37000
H1075       H  0.60176338  0.93115974  0.43506264     0.17300
O1076       O  0.54086848  0.92270734  0.40174507    -0.59600
H1077       H  0.63911519  0.56417850  0.38364635     0.17300
O1078       O  0.69829726  0.57239477  0.41845688    -0.59700
H1079       H  0.71747778  0.57595594  0.40272708     0.44300
H1080       H  0.52166055  0.92418369  0.41595048     0.44300
C1081       C  0.84583146  0.99540614  0.42764019    -0.04800
C1082       C  0.88397628  0.03387723  0.42187777    -0.32200
C1083       C  0.91328606  0.53439949  0.40264149     0.37100
C1084       C  0.90529198  0.49608598  0.38931337    -0.05100
C1085       C  0.86673763  0.45746360  0.39502825    -0.32100
C1086       C  0.83720875  0.95718146  0.41420970     0.37000
H1087       H  0.89062790  0.06339796  0.43217525     0.17300
O1088       O  0.94975822  0.57305329  0.39697298    -0.59600
H1089       H  0.85999560  0.42770780  0.38503661     0.17300
O1090       O  0.79989403  0.91917848  0.41965581    -0.59700
H1091       H  0.80709687  0.90684712  0.43558165     0.44300
H1092       H  0.96958867  0.57877802  0.41267372     0.44300
C1093       C  0.59204699  0.49404649  0.60994891    -0.04800
C1094       C  0.62040058  0.53257346  0.59632009    -0.32200
C1095       C  0.64987831  0.53392905  0.57687616     0.37100
C1096       C  0.65106871  0.49633597  0.57043862    -0.05100
C1097       C  0.62254010  0.95748021  0.58367216    -0.32100
C1098       C  0.59439349  0.45664948  0.60406386     0.37000
H1099       H  0.61964102  0.56187196  0.60059594     0.17300
O1100       O  0.67664450  0.57186809  0.56371349    -0.59600
H1101       H  0.62314892  0.92832930  0.57858421     0.17300
O1102       O  0.56597619  0.91770409  0.61594824    -0.59700
H1103       H  0.53984012  0.90332729  0.60410879     0.44300
H1104       H  0.70461198  0.58467345  0.57378259     0.44300
C1105       C  0.84949521  0.00138432  0.56999067    -0.04800
C1106       C  0.83807368  0.96397363  0.58494674    -0.32200
C1107       C  0.86609534  0.96357897  0.60492907     0.37100
C1108       C  0.90618451  0.00121893  0.61042410    -0.05100
C1109       C  0.91816541  0.53928527  0.59507987    -0.32100
C1110       C  0.89028736  0.53946207  0.57482733     0.37000
H1111       H  0.80738341  0.93492201  0.58097403     0.17300
O1112       O  0.85343711  0.92652729  0.61945188    -0.59600
H1113       H  0.94928698  0.56812880  0.59839176     0.17300
O1114       O  0.90282976  0.57588989  0.55963594    -0.59700
H1115       H  0.90015757  0.59635269  0.57209787     0.44300
H1116       H  0.86006517  0.90817966  0.60743448     0.44300
C1117       C  0.91546863  0.90581318  0.72759256    -0.04800
C1118       C  0.89310859  0.91987170  0.74471109    -0.32200
C1119       C  0.86245155  0.89215457  0.76349125     0.37100
C1120       C  0.85387012  0.84960693  0.76578338    -0.05100
C1121       C  0.87651992  0.83536293  0.74918613    -0.32100
C1122       C  0.90731834  0.86318410  0.73018737     0.37000
H1123       H  0.89879291  0.95243990  0.74330937     0.17300
O1124       O  0.84100646  0.90695465  0.77963263    -0.59600
H1125       H  0.87026899  0.80263840  0.75102738     0.17300
O1126       O  0.92870811  0.84820429  0.71416109    -0.59700
H1127       H  0.95391220  0.85245174  0.72526705     0.44300
H1128       H  0.81442166  0.90040737  0.76924613     0.44300
C1129       C  0.65307503  0.65899594  0.75980235    -0.04800
C1130       C  0.66405632  0.63192305  0.74541109    -0.32200
C1131       C  0.63450981  0.60088829  0.72718309     0.37100
C1132       C  0.59345105  0.59716760  0.72265124    -0.05100
C1133       C  0.58301004  0.62512844  0.73668740    -0.32100
C1134       C  0.61239672  0.65567665  0.75526453     0.37000
H1135       H  0.69519260  0.63405613  0.74895862     0.17300
O1136       O  0.64639869  0.57474558  0.71366878    -0.59600
H1137       H  0.55159756  0.62264165  0.73374757     0.17300
O1138       O  0.60057799  0.68121722  0.76957474    -0.59700
H1139       H  0.61318881  0.70856013  0.75921099     0.44300
H1140       H  0.63952596  0.55077531  0.72645831     0.44300
loop_ 
_geom_bond_atom_site_label_1 
_geom_bond_atom_site_label_2 
_geom_bond_distance 
_geom_bond_site_symmetry_2 
_ccdc_geom_bond_type 
O1          C289   1.268       .  A
O1         Cd576   2.499   1_545  S
C2           O11   1.265       .  A
C2            O7   1.270       .  A
C2          C277   1.484       .  S
O3            C9   1.269       .  A
O3         Cd861   2.495       .  S
C4           O12   1.264       .  A
C4          O286   1.268       .  A
C4          C253   1.485       .  S
C5            O8   1.265   1_565  A
C5          O295   1.269       .  A
C5          C238   1.481       .  S
Cd6          O11   2.441   1_565  S
Cd6           O7   2.486   1_565  S
Cd6           O8   2.419   1_565  S
Cd6         O571   2.498   1_465  S
Cd6         O858   2.495   1_455  S
Cd6         O868   2.401   1_455  S
Cd6         O867   2.456   1_455  S
Cd6         O295   2.481       .  S
C9           O13   1.264       .  A
C9          C262   1.481       .  S
O10         C290   1.269       .  A
O10        Cd291   2.484       .  S
O12        Cd861   2.457       .  S
O13        Cd861   2.404       .  S
N14          C19   1.356       .  A
N14          C18   1.354       .  A
N14          H46   1.035       .  S
N15          C22   1.348       .  A
N15          C23   1.350       .  A
N16          C21   1.353       .  A
N16          C20   1.355       .  A
N16          H47   1.029       .  S
N17          C24   1.351       .  A
N17          C25   1.350       .  A
C18          C26   1.388       .  A
C18          C34   1.418       .  A
C19          C35   1.418       .  A
C19          C27   1.386       .  A
C20          C28   1.388       .  A
C20          C37   1.420       .  A
C21          C36   1.420       .  A
C21          C29   1.388       .  A
C22          C34   1.412       .  A
C22          C30   1.387       .  A
C23          C37   1.415       .  A
C23          C31   1.388       .  A
C24          C32   1.386       .  A
C24          C35   1.414       .  A
C25          C33   1.387       .  A
C25          C36   1.416       .  A
C26          C27   1.373       .  A
C26          H38   1.083       .  S
C27          H39   1.082       .  S
C28          C29   1.372       .  A
C28          H40   1.082       .  S
C29          H41   1.082       .  S
C30          C31   1.371       .  A
C30          H42   1.082       .  S
C31          H43   1.082       .  S
C32          C33   1.371       .  A
C32          H44   1.082       .  S
C33          H45   1.082       .  S
C34         C226   1.478       .  S
C35         C250   1.489       .  S
C36         C526   1.483       .  S
C37         C214   1.483       .  S
O48         C621   1.268       .  A
O48        Cd338   2.502       .  S
C49          O58   1.265       .  A
C49         O339   1.270       .  A
C49         C217   1.476       .  S
O50         C341   1.268       .  A
O50        Cd623   2.465       .  S
C51          O59   1.264       .  A
C51         O618   1.268       .  A
C51         C190   1.483       .  S
C52          O55   1.265   1_655  A
C52         O627   1.267       .  A
C52         C202   1.474       .  S
Cd53         O58   2.420       .  S
Cd53         O55   2.413       .  S
Cd53        O333   2.504       .  S
Cd53        O620   2.464   1_455  S
Cd53        O915   2.404   1_455  S
Cd53        O914   2.416   1_455  S
Cd53        O339   2.443       .  S
Cd53        O627   2.451   1_455  S
O54         C334   1.270   1_545  A
O54        Cd338   2.438       .  S
C56          O60   1.264   1_565  A
C56         O335   1.268       .  A
C56         C229   1.476       .  S
O57         C622   1.268       .  A
O57        Cd623   2.453       .  S
O59        Cd908   2.412       .  S
O60        Cd908   2.402       .  S
N61          C66   1.354       .  A
N61          C65   1.355       .  A
N61          H93   1.034   1_455  S
N62          C69   1.350       .  A
N62          C70   1.348       .  A
N63          C68   1.355   1_655  A
N63          C67   1.353       .  A
N63          H94   1.037       .  S
N64          C71   1.353   1_455  A
N64          C72   1.354   1_455  A
C65          C73   1.386       .  A
C65          C81   1.419       .  A
C66          C82   1.421       .  A
C66          C74   1.388       .  A
C67          C75   1.387   1_655  A
C67          C84   1.415       .  A
C68          C83   1.418       .  A
C68          C76   1.388       .  A
C69          C81   1.411   1_655  A
C69          C77   1.386       .  A
C70          C84   1.410       .  A
C70          C78   1.387       .  A
C71          C79   1.387       .  A
C71          C82   1.419   1_655  A
C72          C80   1.385       .  A
C72          C83   1.416   1_655  A
C73          C74   1.374       .  A
C73          H85   1.082       .  S
C74          H86   1.081       .  S
C75          C76   1.371       .  A
C75          H87   1.082       .  S
C76          H88   1.082       .  S
C77          C78   1.371       .  A
C77          H89   1.082       .  S
C78          H90   1.083       .  S
C79          C80   1.372       .  A
C79          H91   1.082       .  S
C80          H92   1.082       .  S
C81         C763   1.484       .  S
C82         C178   1.491       .  S
C83         C739   1.495       .  S
C84         C205   1.476       .  S
O95          C98   1.269       .  A
O95        Cd100   2.501   1_556  S
C96         O105   1.265       .  A
C96         O671   1.269   1_455  A
C96         C181   1.488       .  S
O97         C673   1.270       .  A
O97        Cd670   2.491       .  S
C98         O106   1.265       .  A
C98         C154   1.483       .  S
C99         O104   1.269       .  A
C99         O102   1.263       .  A
C99         C145   1.481       .  S
Cd100       O107   2.437       .  S
Cd100       O106   2.452   1_554  S
Cd100       O667   2.491       .  S
Cd100       O960   2.454       .  S
Cd100       O386   2.488       .  S
Cd100       O959   2.502   1_554  S
Cd100       O957   2.410   1_554  S
O101        C666   1.270       .  A
O101       Cd385   2.487       .  S
O102       Cd955   2.409   1_556  S
C103        O107   1.266       .  A
C103        O667   1.270       .  A
C103        C166   1.487       .  S
O104       Cd955   2.500   1_556  S
O105       Cd955   2.456       .  S
N108        C113   1.353       .  A
N108        C112   1.353       .  A
N108        H140   1.036       .  S
N109        C116   1.353       .  A
N109        C117   1.351       .  A
N110        C115   1.354       .  A
N110        C114   1.353       .  A
N110        H141   1.037       .  S
N111        C118   1.352       .  A
N111        C119   1.354       .  A
C112        C120   1.387       .  A
C112        C128   1.414       .  A
C113        C129   1.417       .  A
C113        C121   1.388       .  A
C114        C122   1.388       .  A
C114        C131   1.416       .  A
C115        C130   1.415       .  A
C115        C123   1.386       .  A
C116        C128   1.413       .  A
C116        C124   1.385       .  A
C117        C131   1.414       .  A
C117        C125   1.387       .  A
C118        C126   1.387       .  A
C118        C129   1.416       .  A
C119        C127   1.385       .  A
C119        C130   1.415       .  A
C120        C121   1.373       .  A
C120        H132   1.082       .  S
C121        H133   1.082       .  S
C122        C123   1.372       .  A
C122        H134   1.082       .  S
C123        H135   1.082       .  S
C124        C125   1.373       .  A
C124        H136   1.082       .  S
C125        H137   1.082       .  S
C126        C127   1.374       .  A
C126        H138   1.082       .  S
C127        H139   1.082       .  S
C128        C274   1.486       .  S
C129        C142   1.485       .  S
C130        C157   1.490       .  S
C131        C265   1.484       .  S
C142        C143   1.404       .  A
C142        C147   1.404       .  A
C143        C144   1.403       .  A
C143        H148   1.084       .  S
C144        C145   1.411       .  A
C144        O149   1.371       .  S
C145        C146   1.407       .  A
C146        C147   1.395       .  A
C146        H150   1.083       .  S
C147        O151   1.372       .  S
O149        H153   0.992       .  S
O151        H152   0.992       .  S
C154        C155   1.406       .  A
C154        C159   1.411       .  A
C155        C156   1.404       .  A
C155        H160   1.083       .  S
C156        C157   1.410       .  A
C156        O161   1.372       .  S
C157        C158   1.400       .  A
C158        C159   1.400       .  A
C158        H162   1.084       .  S
C159        O163   1.372       .  S
O161        H165   0.992       .  S
O163        H164   0.992       .  S
C166        C167   1.406       .  A
C166        C741   1.413       .  A
C167        C168   1.399       .  A
C167        H172   1.083       .  S
C168        C169   1.407       .  A
C168        O173   1.373       .  S
C169        C653   1.495       .  S
C169        C740   1.405       .  A
C170        C171   1.405       .  A
C170        C739   1.405       .  A
C170        H174   1.083       .  S
C171        C736   1.413       .  A
C171        O175   1.371       .  S
O173        H177   0.992       .  S
O175        H176   0.992       .  S
C178        C179   1.402       .  A
C178        C753   1.407   1_455  A
C179        C180   1.401       .  A
C179        H184   1.084       .  S
C180        C181   1.415       .  A
C180        O185   1.372       .  S
C181        C752   1.406   1_455  A
C182        C183   1.401       .  A
C182        C751   1.406       .  A
C182        H186   1.083       .  S
C183        C748   1.407       .  A
C183        O187   1.371       .  S
O185        H189   0.992       .  S
O187        H188   0.992       .  S
C190        C191   1.407       .  A
C190        C765   1.413       .  A
C191        C192   1.394       .  A
C191        H196   1.083       .  S
C192        C193   1.401       .  A
C192        O197   1.372       .  S
C193        C651   1.484       .  S
C193        C764   1.404       .  A
C194        C195   1.405       .  A
C194        C763   1.404       .  A
C194        H198   1.083       .  S
C195        C760   1.413       .  A
C195        O199   1.371       .  S
O197        H201   0.992       .  S
O199        H200   0.992       .  S
C202        C203   1.406   1_655  A
C202        C777   1.412       .  A
C203        C204   1.393       .  A
C203        H208   1.083       .  S
C204        C205   1.402   1_455  A
C204        O209   1.372       .  S
C205        C776   1.400       .  A
C206        C207   1.399       .  A
C206        C775   1.400       .  A
C206        H210   1.084       .  S
C207        C772   1.412       .  A
C207        O211   1.372       .  S
O209        H213   0.992       .  S
O211        H212   0.992       .  S
C214        C215   1.401       .  A
C214        C504   1.405       .  A
C215        C216   1.397       .  A
C215        H220   1.084       .  S
C216        C217   1.414       .  A
C216        O221   1.372       .  S
C217        C503   1.404       .  A
C218        C219   1.397       .  A
C218        C502   1.404   1_545  A
C218        H222   1.083       .  S
C219        C499   1.405   1_545  A
C219        O223   1.372       .  S
O221        H225   0.992       .  S
O223        H224   0.992       .  S
C226        C227   1.397       .  A
C226        C231   1.406       .  A
C227        C513   1.394       .  A
C227        H232   1.084       .  S
C228        C229   1.413   1_545  A
C228        C512   1.394       .  A
C228        O233   1.372       .  S
C229        C230   1.406       .  A
C230        C516   1.399       .  A
C230        H234   1.083       .  S
C231        C515   1.399       .  A
C231        O235   1.371       .  S
O233        H237   0.992       .  S
O235        H236   0.992       .  S
C238        C239   1.408   1_565  A
C238        C243   1.412       .  A
C239        C240   1.395       .  A
C239        H244   1.083       .  S
C240        C241   1.403   1_545  A
C240        O245   1.372       .  S
C241        C321   1.482       .  S
C241        C527   1.402       .  A
C242        C526   1.402       .  A
C242        C528   1.401       .  A
C242        H246   1.084       .  S
C243        C527   1.401       .  A
C243        O532   1.371       .  S
O245        H249   0.992       .  S
O247        C528   1.371       .  S
O247        H248   0.992       .  S
C250        C251   1.401       .  A
C250        C540   1.406       .  A
C251        C252   1.401       .  A
C251        H256   1.084       .  S
C252        C253   1.413       .  A
C252        O257   1.372       .  S
C253        C539   1.406       .  A
C254        C255   1.403       .  A
C254        C538   1.406       .  A
C254        H258   1.083       .  S
C255        C535   1.406       .  A
C255        O259   1.372       .  S
O257        H261   0.992       .  S
O259        H260   0.992       .  S
C262        C263   1.406       .  A
C262        C267   1.412       .  A
C263        C264   1.393       .  A
C263        H268   1.083       .  S
C264        C265   1.403       .  A
C264        O269   1.372       .  S
C265        C266   1.404       .  A
C266        C267   1.403       .  A
C266        H270   1.084       .  S
C267        O271   1.371       .  S
O269        H273   0.992       .  S
O271        H272   0.992       .  S
C274        C275   1.400       .  A
C274        C279   1.407       .  A
C275        C276   1.400       .  A
C275        H280   1.084       .  S
C276        C277   1.414       .  A
C276        O281   1.372       .  S
C277        C278   1.406       .  A
C278        C279   1.402       .  A
C278        H282   1.083       .  S
C279        O283   1.371       .  S
O281        H285   0.992       .  S
O283        H284   0.992       .  S
O286       Cd861   2.500       .  S
C287        O296   1.265       .  A
C287        O292   1.270       .  A
C287        C562   1.484       .  S
O288        C294   1.269       .  A
O288       Cd576   2.494       .  S
C289        O297   1.264   1_545  A
C289        C538   1.485       .  S
C290        O293   1.265       .  A
C290        C523   1.482       .  S
Cd291       O856   2.500   1_455  S
Cd291       O573   2.495   1_455  S
Cd291       O583   2.404   1_455  S
Cd291       O582   2.457   1_455  S
Cd291       O296   2.441       .  S
Cd291       O292   2.487       .  S
Cd291       O293   2.419       .  S
C294        O298   1.264       .  A
C294        C547   1.480       .  S
O297       Cd576   2.457       .  S
O298       Cd576   2.401       .  S
N299        C304   1.356   1_545  A
N299        C303   1.354   1_545  A
N299        H331   1.036       .  S
N300        C307   1.348       .  A
N300        C308   1.350       .  A
N301        C306   1.353       .  A
N301        C305   1.354       .  A
N301        H332   1.027       .  S
N302        C309   1.350   1_565  A
N302        C310   1.350   1_565  A
C303        C311   1.388       .  A
C303        C319   1.417       .  A
C304        C320   1.417   1_565  A
C304        C312   1.386       .  A
C305        C313   1.388       .  A
C305        C322   1.421       .  A
C306        C321   1.420       .  A
C306        C314   1.388       .  A
C307        C319   1.412       .  A
C307        C315   1.387   1_565  A
C308        C322   1.416       .  A
C308        C316   1.388   1_565  A
C309        C317   1.386       .  A
C309        C320   1.413       .  A
C310        C318   1.387       .  A
C310        C321   1.415   1_545  A
C311        C312   1.373       .  A
C311        H323   1.083       .  S
C312        H324   1.082       .  S
C313        C314   1.373       .  A
C313        H325   1.082       .  S
C314        H326   1.082       .  S
C315        C316   1.372       .  A
C315        H327   1.082       .  S
C316        H328   1.082       .  S
C317        C318   1.371       .  A
C317        H329   1.082       .  S
C318        H330   1.082       .  S
C319        C511   1.478       .  S
C320        C535   1.488       .  S
C322        C499   1.482       .  S
O333        C906   1.269       .  A
C334        O343   1.265       .  A
C334        C502   1.475       .  S
O335       Cd908   2.466   1_565  S
C336        O903   1.268       .  A
C336        O344   1.264       .  A
C336        C475   1.483       .  S
C337        O912   1.268       .  A
C337        O340   1.265   1_655  A
C337        C487   1.474       .  S
Cd338       O905   2.466   1_445  S
Cd338       O630   2.403   1_455  S
Cd338       O629   2.414   1_455  S
Cd338       O343   2.419   1_545  S
Cd338       O912   2.448   1_445  S
Cd338       O340   2.413   1_545  S
C341        O345   1.264       .  A
C341        C514   1.475       .  S
O342        C907   1.268       .  A
O342       Cd908   2.450   1_565  S
O344       Cd623   2.414       .  S
O345       Cd623   2.404       .  S
N346        C351   1.354       .  A
N346        C350   1.355       .  A
N346        H378   1.035   1_455  S
N347        C354   1.350       .  A
N347        C355   1.348       .  A
N348        C353   1.354   1_655  A
N348        C352   1.353       .  A
N348        H379   1.038       .  S
N349        C356   1.353   1_455  A
N349        C357   1.353   1_455  A
C350        C358   1.386       .  A
C350        C366   1.418       .  A
C351        C367   1.421       .  A
C351        C359   1.389       .  A
C352        C360   1.387   1_655  A
C352        C369   1.415       .  A
C353        C368   1.417       .  A
C353        C361   1.387       .  A
C354        C366   1.411   1_655  A
C354        C362   1.386       .  A
C355        C369   1.409       .  A
C355        C363   1.387       .  A
C356        C364   1.387       .  A
C356        C367   1.419   1_655  A
C357        C365   1.385       .  A
C357        C368   1.416   1_655  A
C358        C359   1.373       .  A
C358        H370   1.082       .  S
C359        H371   1.081       .  S
C360        C361   1.371       .  A
C360        H372   1.082       .  S
C361        H373   1.082       .  S
C362        C363   1.371       .  A
C362        H374   1.082       .  S
C363        H375   1.082       .  S
C364        C365   1.372       .  A
C364        H376   1.082       .  S
C365        H377   1.082       .  S
C366       C1048   1.484       .  S
C367        C463   1.492       .  S
C368       C1024   1.493       .  S
C369        C490   1.476       .  S
O380        C383   1.269       .  A
O380       Cd385   2.500   1_566  S
C381        O390   1.265       .  A
C381        O956   1.270   1_455  A
C381        C466   1.488       .  S
O382        C958   1.270       .  A
O382       Cd955   2.493   1_565  S
C383        O391   1.265       .  A
C383        C439   1.483       .  S
C384        O389   1.269       .  A
C384        O387   1.263       .  A
C384        C430   1.482       .  S
Cd385       O952   2.492   1_545  S
Cd385       O392   2.433   1_545  S
Cd385       O391   2.453   1_544  S
Cd385       O675   2.456       .  S
Cd385       O674   2.500   1_554  S
Cd385       O672   2.409   1_554  S
O386        C951   1.270       .  A
O387       Cd670   2.410   1_556  S
C388        O952   1.270       .  A
C388        O392   1.266       .  A
C388        C451   1.486       .  S
O389       Cd670   2.503   1_556  S
O390       Cd670   2.454       .  S
N393        C398   1.353       .  A
N393        C397   1.353       .  A
N393        H425   1.036       .  S
N394        C401   1.353       .  A
N394        C402   1.351       .  A
N395        C400   1.354       .  A
N395        C399   1.353       .  A
N395        H426   1.037       .  S
N396        C403   1.352       .  A
N396        C404   1.354       .  A
C397        C405   1.386       .  A
C397        C413   1.414       .  A
C398        C414   1.417       .  A
C398        C406   1.388       .  A
C399        C407   1.388       .  A
C399        C416   1.416       .  A
C400        C415   1.415       .  A
C400        C408   1.387       .  A
C401        C413   1.413       .  A
C401        C409   1.385       .  A
C402        C416   1.414       .  A
C402        C410   1.387       .  A
C403        C411   1.387       .  A
C403        C414   1.416       .  A
C404        C412   1.385       .  A
C404        C415   1.415       .  A
C405        C406   1.373       .  A
C405        H417   1.082       .  S
C406        H418   1.082       .  S
C407        C408   1.372       .  A
C407        H419   1.082       .  S
C408        H420   1.082       .  S
C409        C410   1.373       .  A
C409        H421   1.082       .  S
C410        H422   1.082       .  S
C411        C412   1.374       .  A
C411        H423   1.082       .  S
C412        H424   1.082       .  S
C413        C559   1.486       .  S
C414        C427   1.486       .  S
C415        C442   1.490       .  S
C416        C550   1.483       .  S
C427        C428   1.404       .  A
C427        C432   1.403       .  A
C428        C429   1.404       .  A
C428        H433   1.084       .  S
C429        C430   1.411       .  A
C429        O434   1.371       .  S
C430        C431   1.407       .  A
C431        C432   1.395       .  A
C431        H435   1.083       .  S
C432        O436   1.372       .  S
O434        H438   0.992       .  S
O436        H437   0.992       .  S
C439        C440   1.406       .  A
C439        C444   1.411       .  A
C440        C441   1.404       .  A
C440        H445   1.083       .  S
C441        C442   1.409       .  A
C441        O446   1.371       .  S
C442        C443   1.401       .  A
C443        C444   1.400       .  A
C443        H447   1.084       .  S
C444        O448   1.372       .  S
O446        H450   0.992       .  S
O448        H449   0.992       .  S
C451        C452   1.406       .  A
C451       C1026   1.413       .  A
C452        C453   1.399       .  A
C452        H457   1.083       .  S
C453        C454   1.407       .  A
C453        O458   1.373       .  S
C454        C938   1.494       .  S
C454       C1025   1.405       .  A
C455       C1024   1.405       .  A
C455        C456   1.404       .  A
C455        H459   1.084       .  S
C456       C1021   1.413       .  A
C456        O460   1.371       .  S
O458        H462   0.992       .  S
O460        H461   0.992       .  S
C463        C464   1.402       .  A
C463       C1038   1.408   1_455  A
C464        C465   1.401       .  A
C464        H469   1.084       .  S
C465        C466   1.415       .  A
C465        O470   1.372       .  S
C466       C1037   1.406   1_455  A
C467       C1036   1.406       .  A
C467        C468   1.401       .  A
C467        H471   1.083       .  S
C468       C1033   1.408       .  A
C468        O472   1.371       .  S
O470        H474   0.992       .  S
O472        H473   0.992       .  S
C475        C476   1.407       .  A
C475       C1050   1.413       .  A
C476        C477   1.394       .  A
C476        H481   1.083       .  S
C477        C478   1.402       .  A
C477        O482   1.372       .  S
C478        C936   1.484       .  S
C478       C1049   1.404       .  A
C479       C1048   1.403       .  A
C479        C480   1.405       .  A
C479        H483   1.083       .  S
C480       C1045   1.413       .  A
C480        O484   1.371       .  S
O482        H486   0.992       .  S
O484        H485   0.992       .  S
C487        C488   1.406   1_655  A
C487       C1062   1.412       .  A
C488        C489   1.393       .  A
C488        H493   1.083       .  S
C489        C490   1.402   1_455  A
C489        O494   1.372       .  S
C490       C1061   1.400       .  A
C491       C1060   1.400       .  A
C491        C492   1.399       .  A
C491        H495   1.084       .  S
C492       C1057   1.412       .  A
C492        O496   1.372       .  S
O494        H498   0.992       .  S
O496        H497   0.992       .  S
C499        C500   1.401       .  A
C500        C501   1.397       .  A
C500        H505   1.084       .  S
C501        C502   1.413       .  A
C501        O506   1.372       .  S
C503        C504   1.397       .  A
C503        H507   1.083       .  S
C504        O508   1.372       .  S
O506        H510   0.992       .  S
O508        H509   0.992       .  S
C511        C512   1.397   1_565  A
C511        C516   1.405       .  A
C512        H517   1.084       .  S
C513        C514   1.412       .  A
C513        O518   1.372       .  S
C514        C515   1.406       .  A
C515        H519   1.083       .  S
C516        O520   1.371       .  S
O518        H522   0.992       .  S
O520        H521   0.992       .  S
C523        C524   1.408       .  A
C523        C528   1.412       .  A
C524        C525   1.395       .  A
C524        H529   1.083       .  S
C525        C526   1.403       .  A
C525        O530   1.372       .  S
C527        H531   1.084       .  S
O530        H534   0.992       .  S
O532        H533   0.992       .  S
C535        C536   1.401   1_545  A
C536        C537   1.401       .  A
C536        H541   1.084       .  S
C537        C538   1.413   1_565  A
C537        O542   1.372       .  S
C539        C540   1.404       .  A
C539        H543   1.083       .  S
C540        O544   1.372       .  S
O542        H546   0.992       .  S
O544        H545   0.992       .  S
C547        C548   1.406       .  A
C547        C552   1.412       .  A
C548        C549   1.393       .  A
C548        H553   1.083       .  S
C549        C550   1.403       .  A
C549        O554   1.372       .  S
C550        C551   1.403       .  A
C551        C552   1.403       .  A
C551        H555   1.084       .  S
C552        O556   1.371       .  S
O554        H558   0.992       .  S
O556        H557   0.992       .  S
C559        C560   1.400       .  A
C559        C564   1.407       .  A
C560        C561   1.400       .  A
C560        H565   1.084       .  S
C561        C562   1.414       .  A
C561        O566   1.372       .  S
C562        C563   1.406       .  A
C563        C564   1.402       .  A
C563        H567   1.083       .  S
C564        O568   1.371       .  S
O566        H570   0.992       .  S
O568        H569   0.992       .  S
O571        C859   1.268       .  A
C572        O581   1.265       .  A
C572        O577   1.270       .  A
C572        C847   1.484       .  S
O573        C579   1.269       .  A
C574        O856   1.268       .  A
C574        O582   1.264       .  A
C574        C823   1.485       .  S
C575        O865   1.269       .  A
C575        O578   1.265   1_565  A
C575        C808   1.481       .  S
Cd576       O581   2.441   1_565  S
Cd576       O577   2.487   1_565  S
Cd576       O865   2.483       .  S
Cd576       O578   2.418   1_565  S
C579        O583   1.264       .  A
C579        C832   1.481       .  S
O580        C860   1.269       .  A
O580       Cd861   2.484       .  S
N584        C589   1.356       .  A
N584        C588   1.354       .  A
N584        H616   1.035       .  S
N585        C592   1.348       .  A
N585        C593   1.350       .  A
N586        C591   1.354       .  A
N586        C590   1.355       .  A
N586        H617   1.030       .  S
N587        C594   1.351       .  A
N587        C595   1.350       .  A
C588        C596   1.388       .  A
C588        C604   1.418       .  A
C589        C605   1.418       .  A
C589        C597   1.386       .  A
C590        C598   1.388       .  A
C590        C607   1.420       .  A
C591        C606   1.420       .  A
C591        C599   1.388       .  A
C592        C604   1.412       .  A
C592        C600   1.387       .  A
C593        C607   1.415       .  A
C593        C601   1.388       .  A
C594        C602   1.386       .  A
C594        C605   1.414       .  A
C595        C603   1.387       .  A
C595        C606   1.416       .  A
C596        C597   1.373       .  A
C596        H608   1.083       .  S
C597        H609   1.082       .  S
C598        C599   1.372       .  A
C598        H610   1.082       .  S
C599        H611   1.082       .  S
C600        C601   1.371       .  A
C600        H612   1.082       .  S
C601        H613   1.082       .  S
C602        C603   1.371       .  A
C602        H614   1.082       .  S
C603        H615   1.082       .  S
C604        C796   1.478       .  S
C605        C820   1.489       .  S
C606       C1096   1.483       .  S
C607        C784   1.482       .  S
O618       Cd908   2.505       .  S
C619        O628   1.265       .  A
C619        O909   1.270       .  A
C619        C787   1.476       .  S
O620        C911   1.268       .  A
C621        O629   1.264   1_455  A
C621        C760   1.483       .  S
C622        O625   1.265       .  A
C622        C772   1.474       .  S
Cd623       O903   2.505       .  S
Cd623       O628   2.420       .  S
Cd623       O909   2.443       .  S
Cd623       O625   2.411       .  S
O624        C904   1.270   1_545  A
O624       Cd908   2.438       .  S
C626        O905   1.268       .  A
C626        O630   1.264   1_565  A
C626        C799   1.475       .  S
N631        C636   1.354       .  A
N631        C635   1.355       .  A
N631        H663   1.034       .  S
N632        C639   1.350       .  A
N632        C640   1.349       .  A
N633        C638   1.354       .  A
N633        C637   1.353       .  A
N633        H664   1.037       .  S
N634        C641   1.353       .  A
N634        C642   1.354       .  A
C635        C643   1.386       .  A
C635        C651   1.419       .  A
C636        C652   1.421       .  A
C636        C644   1.388       .  A
C637        C645   1.387       .  A
C637        C654   1.415       .  A
C638        C653   1.418       .  A
C638        C646   1.388       .  A
C639        C651   1.411       .  A
C639        C647   1.386       .  A
C640        C654   1.410       .  A
C640        C648   1.387       .  A
C641        C649   1.387       .  A
C641        C652   1.419       .  A
C642        C650   1.385       .  A
C642        C653   1.416       .  A
C643        C644   1.374       .  A
C643        H655   1.082       .  S
C644        H656   1.081       .  S
C645        C646   1.372       .  A
C645        H657   1.082       .  S
C646        H658   1.082       .  S
C647        C648   1.371       .  A
C647        H659   1.082       .  S
C648        H660   1.083       .  S
C649        C650   1.372       .  A
C649        H661   1.082       .  S
C650        H662   1.082       .  S
C652        C748   1.491       .  S
C654        C775   1.476       .  S
O665        C668   1.269       .  A
O665       Cd670   2.501   1_656  S
C666        O675   1.265       .  A
C666        C751   1.488       .  S
C668        O676   1.265       .  A
C668        C724   1.483       .  S
C669        O674   1.269       .  A
C669        O672   1.263       .  A
C669        C715   1.481       .  S
Cd670       O677   2.434   1_455  S
Cd670       O676   2.453   1_454  S
Cd670       O956   2.489   1_455  S
O671       Cd955   2.488   1_655  S
C673        O677   1.266   1_455  A
C673        C736   1.487       .  S
N678        C683   1.353       .  A
N678        C682   1.353       .  A
N678        H710   1.036       .  S
N679        C686   1.353       .  A
N679        C687   1.351       .  A
N680        C685   1.354       .  A
N680        C684   1.353       .  A
N680        H711   1.037       .  S
N681        C688   1.352       .  A
N681        C689   1.354       .  A
C682        C690   1.387       .  A
C682        C698   1.414       .  A
C683        C699   1.417       .  A
C683        C691   1.388       .  A
C684        C692   1.388       .  A
C684        C701   1.417       .  A
C685        C700   1.415       .  A
C685        C693   1.386       .  A
C686        C698   1.414       .  A
C686        C694   1.385       .  A
C687        C701   1.414       .  A
C687        C695   1.387       .  A
C688        C696   1.387       .  A
C688        C699   1.416       .  A
C689        C697   1.385       .  A
C689        C700   1.415       .  A
C690        C691   1.373       .  A
C690        H702   1.082       .  S
C691        H703   1.082       .  S
C692        C693   1.372       .  A
C692        H704   1.082       .  S
C693        H705   1.082       .  S
C694        C695   1.373       .  A
C694        H706   1.082       .  S
C695        H707   1.082       .  S
C696        C697   1.374       .  A
C696        H708   1.082       .  S
C697        H709   1.082       .  S
C698        C844   1.486       .  S
C699        C712   1.485       .  S
C700        C727   1.490       .  S
C701        C835   1.484       .  S
C712        C713   1.404       .  A
C712        C717   1.404       .  A
C713        C714   1.403       .  A
C713        H718   1.084       .  S
C714        C715   1.411       .  A
C714        O719   1.371       .  S
C715        C716   1.407       .  A
C716        C717   1.395       .  A
C716        H720   1.083       .  S
C717        O721   1.372       .  S
O719        H723   0.992       .  S
O721        H722   0.992       .  S
C724        C725   1.406       .  A
C724        C729   1.411       .  A
C725        C726   1.404       .  A
C725        H730   1.083       .  S
C726        C727   1.410       .  A
C726        O731   1.372       .  S
C727        C728   1.400       .  A
C728        C729   1.400       .  A
C728        H732   1.084       .  S
C729        O733   1.372       .  S
O731        H735   0.992       .  S
O733        H734   0.992       .  S
C736        C737   1.406   1_455  A
C737        C738   1.399       .  A
C737        H742   1.083       .  S
C738        C739   1.407   1_655  A
C738        O743   1.373       .  S
C740        C741   1.405       .  A
C740        H744   1.083       .  S
C741        O745   1.371       .  S
O743        H747   0.992       .  S
O745        H746   0.992       .  S
C748        C749   1.402       .  A
C749        C750   1.401       .  A
C749        H754   1.084       .  S
C750        C751   1.415       .  A
C750        O755   1.372       .  S
C752        C753   1.402       .  A
C752        H756   1.083       .  S
C753        O757   1.371       .  S
O755        H759   0.992       .  S
O757        H758   0.992       .  S
C760        C761   1.407   1_455  A
C761        C762   1.394       .  A
C761        H766   1.083       .  S
C762        C763   1.402   1_655  A
C762        O767   1.372       .  S
C764        C765   1.405       .  A
C764        H768   1.083       .  S
C765        O769   1.371       .  S
O767        H771   0.992       .  S
O769        H770   0.992       .  S
C772        C773   1.406       .  A
C773        C774   1.392       .  A
C773        H778   1.083       .  S
C774        C775   1.402       .  A
C774        O779   1.372       .  S
C776        C777   1.399       .  A
C776        H780   1.084       .  S
C777        O781   1.371       .  S
O779        H783   0.992       .  S
O781        H782   0.992       .  S
C784        C785   1.400       .  A
C784       C1074   1.405       .  A
C785        C786   1.397       .  A
C785        H790   1.084       .  S
C786        C787   1.414       .  A
C786        O791   1.372       .  S
C787       C1073   1.404       .  A
C788       C1072   1.404   1_545  A
C788        C789   1.397       .  A
C788        H792   1.083       .  S
C789       C1069   1.405   1_545  A
C789        O793   1.372       .  S
O791        H795   0.992       .  S
O793        H794   0.992       .  S
C796        C797   1.397       .  A
C796        C801   1.406       .  A
C797       C1083   1.394       .  A
C797        H802   1.084       .  S
C798       C1082   1.395       .  A
C798        C799   1.412   1_545  A
C798        O803   1.372       .  S
C799        C800   1.406       .  A
C800       C1086   1.399       .  A
C800        H804   1.083       .  S
C801       C1085   1.400       .  A
C801        O805   1.371       .  S
O803        H807   0.992       .  S
O805        H806   0.992       .  S
C808        C809   1.408   1_565  A
C808        C813   1.412       .  A
C809        C810   1.395       .  A
C809        H814   1.083       .  S
C810        C811   1.403   1_545  A
C810        O815   1.372       .  S
C811        C891   1.482       .  S
C811       C1097   1.402       .  A
C812       C1096   1.402       .  A
C812       C1098   1.401       .  A
C812        H816   1.084       .  S
C813       C1097   1.401       .  A
C813       O1102   1.371       .  S
O815        H819   0.992       .  S
O817       C1098   1.371       .  S
O817        H818   0.992       .  S
C820        C821   1.401       .  A
C820       C1110   1.406       .  A
C821        C822   1.401       .  A
C821        H826   1.084       .  S
C822        C823   1.413       .  A
C822        O827   1.372       .  S
C823       C1109   1.406       .  A
C824       C1108   1.406       .  A
C824        C825   1.403       .  A
C824        H828   1.083       .  S
C825       C1105   1.405       .  A
C825        O829   1.372       .  S
O827        H831   0.992       .  S
O829        H830   0.992       .  S
C832        C833   1.406       .  A
C832        C837   1.412       .  A
C833        C834   1.393       .  A
C833        H838   1.083       .  S
C834        C835   1.403       .  A
C834        O839   1.372       .  S
C835        C836   1.404       .  A
C836        C837   1.403       .  A
C836        H840   1.084       .  S
C837        O841   1.371       .  S
O839        H843   0.992       .  S
O841        H842   0.992       .  S
C844        C845   1.400       .  A
C844        C849   1.407       .  A
C845        C846   1.400       .  A
C845        H850   1.084       .  S
C846        C847   1.414       .  A
C846        O851   1.372       .  S
C847        C848   1.406       .  A
C848        C849   1.402       .  A
C848        H852   1.083       .  S
C849        O853   1.371       .  S
O851        H855   0.992       .  S
O853        H854   0.992       .  S
C857        O866   1.265       .  A
C857        O862   1.270       .  A
C857       C1132   1.484       .  S
O858        C864   1.269       .  A
C859        O867   1.264   1_545  A
C859       C1108   1.485       .  S
C860        O863   1.265       .  A
C860       C1093   1.482       .  S
Cd861       O866   2.441       .  S
Cd861       O862   2.487       .  S
Cd861       O863   2.420       .  S
C864        O868   1.264       .  A
C864       C1117   1.481       .  S
N869        C874   1.356   1_545  A
N869        C873   1.354   1_545  A
N869        H901   1.036       .  S
N870        C877   1.348       .  A
N870        C878   1.350       .  A
N871        C876   1.354       .  A
N871        C875   1.354       .  A
N871        H902   1.030       .  S
N872        C879   1.351   1_565  A
N872        C880   1.350       .  A
C873        C881   1.388       .  A
C873        C889   1.418       .  A
C874        C890   1.417   1_565  A
C874        C882   1.386       .  A
C875        C883   1.388   1_565  A
C875        C892   1.420       .  A
C876        C891   1.419       .  A
C876        C884   1.388       .  A
C877        C889   1.412       .  A
C877        C885   1.387       .  A
C878        C892   1.415       .  A
C878        C886   1.388       .  A
C879        C887   1.386       .  A
C879        C890   1.413       .  A
C880        C888   1.387   1_565  A
C880        C891   1.415       .  A
C881        C882   1.373       .  A
C881        H893   1.083       .  S
C882        H894   1.082       .  S
C883        C884   1.372   1_545  A
C883        H895   1.082       .  S
C884        H896   1.082   1_565  S
C885        C886   1.371       .  A
C885        H897   1.082   1_565  S
C886        H898   1.082       .  S
C887        C888   1.371       .  A
C887        H899   1.082       .  S
C888        H900   1.082       .  S
C889       C1081   1.478       .  S
C890       C1105   1.488       .  S
C892       C1069   1.482       .  S
C904        O913   1.265       .  A
C904       C1072   1.476       .  S
C906        O914   1.264   1_455  A
C906       C1045   1.483       .  S
C907        O910   1.265       .  A
C907       C1057   1.475       .  S
Cd908       O913   2.419   1_545  S
Cd908       O910   2.413   1_545  S
C911        O915   1.264       .  A
C911       C1084   1.475       .  S
N916        C921   1.354       .  A
N916        C920   1.355       .  A
N916        H948   1.034       .  S
N917        C924   1.350       .  A
N917        C925   1.348       .  A
N918        C923   1.354       .  A
N918        C922   1.353       .  A
N918        H949   1.038       .  S
N919        C926   1.353       .  A
N919        C927   1.354       .  A
C920        C928   1.386       .  A
C920        C936   1.418       .  A
C921        C937   1.421       .  A
C921        C929   1.389       .  A
C922        C930   1.387       .  A
C922        C939   1.415       .  A
C923        C938   1.417       .  A
C923        C931   1.387       .  A
C924        C936   1.411       .  A
C924        C932   1.386       .  A
C925        C939   1.409       .  A
C925        C933   1.387       .  A
C926        C934   1.387       .  A
C926        C937   1.419       .  A
C927        C935   1.385       .  A
C927        C938   1.416       .  A
C928        C929   1.373       .  A
C928        H940   1.082       .  S
C929        H941   1.081       .  S
C930        C931   1.372       .  A
C930        H942   1.082       .  S
C931        H943   1.082       .  S
C932        C933   1.371       .  A
C932        H944   1.082       .  S
C933        H945   1.082       .  S
C934        C935   1.372       .  A
C934        H946   1.082       .  S
C935        H947   1.082       .  S
C937       C1033   1.492       .  S
C939       C1060   1.476       .  S
O950        C953   1.269       .  A
O950       Cd955   2.500   1_666  S
C951        O960   1.265       .  A
C951       C1036   1.488       .  S
C953        O961   1.265       .  A
C953       C1009   1.483       .  S
C954        O959   1.269       .  A
C954        O957   1.263       .  A
C954       C1000   1.482       .  S
Cd955       O962   2.430   1_445  S
Cd955       O961   2.453   1_444  S
C958        O962   1.266   1_455  A
C958       C1021   1.486       .  S
N963        C968   1.353       .  A
N963        C967   1.353       .  A
N963        H995   1.036       .  S
N964        C971   1.353       .  A
N964        C972   1.351       .  A
N965        C970   1.354       .  A
N965        C969   1.353       .  A
N965        H996   1.037       .  S
N966        C973   1.352       .  A
N966        C974   1.354       .  A
C967        C975   1.387       .  A
C967        C983   1.414       .  A
C968        C984   1.417       .  A
C968        C976   1.388       .  A
C969        C977   1.388       .  A
C969        C986   1.416       .  A
C970        C985   1.414       .  A
C970        C978   1.386       .  A
C971        C983   1.413       .  A
C971        C979   1.385       .  A
C972        C986   1.414       .  A
C972        C980   1.387       .  A
C973        C981   1.387       .  A
C973        C984   1.416       .  A
C974        C982   1.385       .  A
C974        C985   1.415       .  A
C975        C976   1.373       .  A
C975        H987   1.082       .  S
C976        H988   1.082       .  S
C977        C978   1.372       .  A
C977        H989   1.082       .  S
C978        H990   1.082       .  S
C979        C980   1.374       .  A
C979        H991   1.082       .  S
C980        H992   1.082       .  S
C981        C982   1.374       .  A
C981        H993   1.082       .  S
C982        H994   1.082       .  S
C983       C1129   1.486       .  S
C984        C997   1.486       .  S
C985       C1012   1.490       .  S
C986       C1120   1.484       .  S
C997        C998   1.404       .  A
C997       C1002   1.404       .  A
C998        C999   1.404       .  A
C998       H1003   1.084       .  S
C999       C1000   1.411       .  A
C999       O1004   1.371       .  S
C1000      C1001   1.407       .  A
C1001      C1002   1.395       .  A
C1001      H1005   1.083       .  S
C1002      O1006   1.372       .  S
O1004      H1008   0.992       .  S
O1006      H1007   0.992       .  S
C1009      C1010   1.406       .  A
C1009      C1014   1.411       .  A
C1010      C1011   1.404       .  A
C1010      H1015   1.083       .  S
C1011      C1012   1.409       .  A
C1011      O1016   1.372       .  S
C1012      C1013   1.400       .  A
C1013      C1014   1.400       .  A
C1013      H1017   1.084       .  S
C1014      O1018   1.372       .  S
O1016      H1020   0.992       .  S
O1018      H1019   0.992       .  S
C1021      C1022   1.406   1_455  A
C1022      C1023   1.398       .  A
C1022      H1027   1.083       .  S
C1023      C1024   1.407   1_655  A
C1023      O1028   1.373       .  S
C1025      C1026   1.404       .  A
C1025      H1029   1.083       .  S
C1026      O1030   1.371       .  S
O1028      H1032   0.992       .  S
O1030      H1031   0.992       .  S
C1033      C1034   1.402       .  A
C1034      C1035   1.401       .  A
C1034      H1039   1.084       .  S
C1035      C1036   1.415       .  A
C1035      O1040   1.372       .  S
C1037      C1038   1.402       .  A
C1037      H1041   1.083       .  S
C1038      O1042   1.371       .  S
O1040      H1044   0.992       .  S
O1042      H1043   0.992       .  S
C1045      C1046   1.407   1_455  A
C1046      C1047   1.394       .  A
C1046      H1051   1.083       .  S
C1047      C1048   1.402   1_655  A
C1047      O1052   1.372       .  S
C1049      C1050   1.405       .  A
C1049      H1053   1.083       .  S
C1050      O1054   1.371       .  S
O1052      H1056   0.992       .  S
O1054      H1055   0.992       .  S
C1057      C1058   1.406       .  A
C1058      C1059   1.393       .  A
C1058      H1063   1.083       .  S
C1059      C1060   1.402       .  A
C1059      O1064   1.372       .  S
C1061      C1062   1.399       .  A
C1061      H1065   1.084       .  S
C1062      O1066   1.371       .  S
O1064      H1068   0.992       .  S
O1066      H1067   0.992       .  S
C1069      C1070   1.401       .  A
C1070      C1071   1.397       .  A
C1070      H1075   1.084       .  S
C1071      C1072   1.414       .  A
C1071      O1076   1.372       .  S
C1073      C1074   1.397       .  A
C1073      H1077   1.083       .  S
C1074      O1078   1.372       .  S
O1076      H1080   0.992       .  S
O1078      H1079   0.992       .  S
C1081      C1082   1.397   1_565  A
C1081      C1086   1.405       .  A
C1082      H1087   1.084       .  S
C1083      C1084   1.412       .  A
C1083      O1088   1.372       .  S
C1084      C1085   1.406       .  A
C1085      H1089   1.083       .  S
C1086      O1090   1.371       .  S
O1088      H1092   0.992       .  S
O1090      H1091   0.992       .  S
C1093      C1094   1.408       .  A
C1093      C1098   1.412       .  A
C1094      C1095   1.396       .  A
C1094      H1099   1.083       .  S
C1095      C1096   1.403       .  A
C1095      O1100   1.372       .  S
C1097      H1101   1.084       .  S
O1100      H1104   0.992       .  S
O1102      H1103   0.992       .  S
C1105      C1106   1.401   1_545  A
C1106      C1107   1.401       .  A
C1106      H1111   1.084       .  S
C1107      C1108   1.413   1_565  A
C1107      O1112   1.372       .  S
C1109      C1110   1.404       .  A
C1109      H1113   1.083       .  S
C1110      O1114   1.372       .  S
O1112      H1116   0.992       .  S
O1114      H1115   0.992       .  S
C1117      C1118   1.406       .  A
C1117      C1122   1.412       .  A
C1118      C1119   1.393       .  A
C1118      H1123   1.083       .  S
C1119      C1120   1.403       .  A
C1119      O1124   1.372       .  S
C1120      C1121   1.404       .  A
C1121      C1122   1.403       .  A
C1121      H1125   1.084       .  S
C1122      O1126   1.371       .  S
O1124      H1128   0.992       .  S
O1126      H1127   0.992       .  S
C1129      C1130   1.400       .  A
C1129      C1134   1.407       .  A
C1130      C1131   1.400       .  A
C1130      H1135   1.084       .  S
C1131      C1132   1.414       .  A
C1131      O1136   1.372       .  S
C1132      C1133   1.406       .  A
C1133      C1134   1.402       .  A
C1133      H1137   1.083       .  S
C1134      O1138   1.371       .  S
O1136      H1140   0.992       .  S
O1138      H1139   0.992       .  S
