geometry optimzed in LAMMPS
_audit_creation_date              2020-12-01 
_audit_creation_method            'lammps2cif' 
_symmetry_space_group_name_H-M    'P1' 
_symmetry_Int_Tables_number       1 
_symmetry_cell_setting            triclinic 
loop_ 
_symmetry_equiv_pos_as_xyz 
  x,y,z 
_cell_length_a                    57.06718881 
_cell_length_b                    57.09061835289309 
_cell_length_c                    57.17031085290767 
_cell_angle_alpha                 90.04920652150471 
_cell_angle_beta                  90.02235210813366 
_cell_angle_gamma                 90.05699147087506 
loop_ 
_atom_site_label 
_atom_site_type_symbol 
_atom_site_fract_x 
_atom_site_fract_y 
_atom_site_fract_z 
_atom_site_charge 
N1          N  0.21996354  0.29052310  0.24158276    -0.27500
N2          N  0.20955954  0.28035366  0.25955682    -0.35300
C3          C  0.19038049  0.29270152  0.26531597     0.00900
C4          C  0.18848955  0.31164163  0.25024003     0.06900
C5          C  0.20766097  0.30962232  0.23543943    -0.06200
H6          H  0.17862980  0.28794242  0.27935653     0.07600
H7          H  0.21244551  0.32108509  0.22117553     0.08800
Cu8        Cu  0.22148519  0.25010992  0.27568061     0.44200
Cu9        Cu  0.25010739  0.27790954  0.22572775     0.42000
Cu10       Cu  0.27359618  0.22505664  0.25108647     0.43900
N11         N  0.23767642  0.22056400  0.28915485    -0.34800
N12         N  0.25686947  0.21148601  0.28003068    -0.29100
C13         C  0.26344287  0.19285876  0.29273993    -0.05200
C14         C  0.24761416  0.18994626  0.31090567     0.07000
C15         C  0.23147591  0.20791748  0.30799745     0.00800
H16         H  0.27884456  0.18249438  0.28905111     0.08500
H17         H  0.21633710  0.21167309  0.31871486     0.07500
N18         N  0.28797128  0.24149086  0.22236747    -0.36300
N19         N  0.27952511  0.26084711  0.21299076    -0.28500
C20         C  0.29286101  0.26679327  0.19453926    -0.03700
C21         C  0.31063333  0.25034568  0.19219275     0.04900
C22         C  0.30686510  0.23458243  0.21022939     0.03000
H23         H  0.28975618  0.28202103  0.18375564     0.08100
H24         H  0.31686806  0.21903326  0.21425379     0.06900
O25         O  0.97368714  0.52556780  0.26914086    -0.73100
O26         O  0.02375173  0.47638104  0.26906750    -0.74100
O27         O  0.02349184  0.52623576  0.26932667    -0.62700
O28         O  0.97407264  0.47591874  0.26876678    -0.71100
O29         O  0.97388208  0.47671049  0.22999157    -0.70700
O30         O  0.02395466  0.52609334  0.23055519    -0.61900
O31         O  0.02366685  0.47646177  0.23028358    -0.74400
O32         O  0.97429850  0.52628882  0.23036140    -0.73200
Cu33       Cu  0.99876224  0.50103195  0.27043547     1.04600
Cu34       Cu  0.99896770  0.50139182  0.22896463     1.04300
C35         C  0.96605227  0.53370855  0.24977259     0.93100
C36         C  0.03154649  0.46851442  0.24963971     0.92200
C37         C  0.03160579  0.53408180  0.25000175     0.84400
C38         C  0.96603657  0.46847629  0.24924409     0.90600
N39         N  0.72347878  0.74598928  0.20850584    -0.27500
N40         N  0.71373237  0.76434692  0.21863096    -0.35300
C41         C  0.69527890  0.77131154  0.20581568     0.00900
C42         C  0.69324303  0.75659782  0.18660568     0.06900
C43         C  0.71148940  0.74073671  0.18896986    -0.06200
H44         H  0.68409586  0.78587830  0.21041089     0.07600
H45         H  0.71591093  0.72643507  0.17738551     0.08800
Cu46       Cu  0.72596802  0.77912392  0.24930568     0.44200
Cu47       Cu  0.75241815  0.72874771  0.22180306     0.42000
Cu48       Cu  0.77583869  0.75120086  0.27633687     0.43900
N49         N  0.74198806  0.79132232  0.27936373    -0.34800
N50         N  0.76020418  0.78113446  0.28930074    -0.29100
C51         C  0.76641092  0.79341190  0.30838545    -0.05200
C52         C  0.75134520  0.81233433  0.31060041     0.07000
C53         C  0.73609258  0.81036643  0.29181466     0.00800
H54         H  0.78092713  0.78885145  0.31964622     0.08500
H55         H  0.72156387  0.82170731  0.28750946     0.07500
N56         N  0.78894725  0.72216990  0.25919750    -0.36300
N57         N  0.78057417  0.71408167  0.23922575    -0.28500
C58         C  0.79314122  0.69530514  0.23268474    -0.03700
C59         C  0.81033744  0.69131778  0.24937560     0.04900
C60         C  0.80704877  0.70877410  0.26593475     0.03000
H61         H  0.78994574  0.68547949  0.21683155     0.08100
H62         H  0.81694310  0.71165712  0.28180234     0.06900
O63         O  0.23080431  0.97577882  0.47632154    -0.73100
O64         O  0.23014608  0.02600196  0.52533167    -0.74100
O65         O  0.23047878  0.02546100  0.47579893    -0.62700
O66         O  0.23049538  0.97626735  0.52585128    -0.71100
O67         O  0.26934420  0.97612970  0.52574773    -0.70700
O68         O  0.26931500  0.02618646  0.47647510    -0.61900
O69         O  0.26899461  0.02587810  0.52617757    -0.74400
O70         O  0.26964868  0.97642364  0.47620871    -0.73200
Cu71       Cu  0.22914187  0.00087969  0.50081980     1.04600
Cu72       Cu  0.27068382  0.00118470  0.50115814     1.04300
C73         C  0.25032165  0.96810713  0.46850459     0.93100
C74         C  0.24942968  0.03383783  0.53360014     0.92200
C75         C  0.24988811  0.03368152  0.46824537     0.84400
C76         C  0.24990819  0.96824570  0.53359590     0.90600
O77         O  0.76716886  0.02500558  0.47584831    -0.73100
O78         O  0.76743250  0.97575210  0.52561023    -0.74100
O79         O  0.76677104  0.97544330  0.47622558    -0.62700
O80         O  0.76784439  0.02525737  0.52545265    -0.71100
O81         O  0.72900145  0.02538047  0.52615996    -0.70700
O82         O  0.72791910  0.97567342  0.47641992    -0.61900
O83         O  0.72857812  0.97568816  0.52597241    -0.74400
O84         O  0.72832436  0.02545934  0.47647268    -0.73200
Cu85       Cu  0.76863043  0.00037179  0.50075017     1.04600
Cu86       Cu  0.72708179  0.00058068  0.50125839     1.04300
C87         C  0.74772325  0.03308889  0.46828271     0.93100
C88         C  0.74809324  0.96784387  0.53363347     0.92200
C89         C  0.74725679  0.96756494  0.46857957     0.84400
C90         C  0.74861454  0.03310451  0.53377309     0.90600
N91         N  0.21159704  0.72044790  0.74027650    -0.27500
N92         N  0.22064836  0.71098430  0.75930334    -0.35300
C93         C  0.20803915  0.69196423  0.76510345     0.00900
C94         C  0.19008935  0.68924360  0.74891344     0.06900
C95         C  0.19299842  0.70772732  0.73343103    -0.06200
H96         H  0.21176123  0.68106594  0.78010008     0.07600
H97         H  0.18251760  0.71174757  0.71820558     0.08800
Cu98       Cu  0.24988922  0.72422499  0.77629771     0.44200
Cu99       Cu  0.22483018  0.75023185  0.72447791     0.42000
Cu100      Cu  0.27624281  0.77624053  0.75079554     0.43900
N101        N  0.27988886  0.74015530  0.78919366    -0.34800
N102        N  0.28960113  0.75895833  0.77982960    -0.29100
C103        C  0.30891081  0.76457373  0.79211136    -0.05200
C104        C  0.31151730  0.74856465  0.81017866     0.07000
C105        C  0.29270889  0.73334938  0.80770657     0.00800
H106        H  0.32002655  0.77941211  0.78822470     0.08500
H107        H  0.28865256  0.71825119  0.81837258     0.07500
N108        N  0.25959532  0.78981742  0.72149040    -0.36300
N109        N  0.24085925  0.78019101  0.71190023    -0.28500
C110        C  0.23444221  0.79283584  0.69316340    -0.03700
C111        C  0.24988815  0.81145779  0.69069505     0.04900
C112        C  0.26560662  0.80890546  0.70908490     0.03000
H113        H  0.21955223  0.78862701  0.68224440     0.08100
H114        H  0.28050697  0.81988823  0.71314134     0.06900
O115        O  0.97460239  0.47617997  0.77199193    -0.73100
O116        O  0.02492730  0.52529983  0.76999366    -0.74100
O117        O  0.97525391  0.52575548  0.77078357    -0.62700
O118        O  0.02436635  0.47571971  0.77116756    -0.71100
O119        O  0.02322549  0.47453997  0.73240813    -0.70700
O120        O  0.97514670  0.52531597  0.73198626    -0.61900
O121        O  0.02467461  0.52401130  0.73123182    -0.74400
O122        O  0.97359810  0.47578934  0.73322586    -0.73200
Cu123      Cu  0.99981218  0.50076018  0.77234731     1.04600
Cu124      Cu  0.99913636  0.49985977  0.73087706     1.04300
C125        C  0.96598665  0.46833261  0.75288542     0.93100
C126        C  0.03281625  0.53240002  0.75030920     0.92200
C127        C  0.96749927  0.53352914  0.75131261     0.84400
C128        C  0.03160546  0.46723382  0.75178816     0.90600
N129        N  0.75820163  0.22110204  0.71222308    -0.27500
N130        N  0.73954259  0.21131640  0.72180967    -0.35300
C131        C  0.73373516  0.19210261  0.70949634     0.00900
C132        C  0.74949805  0.18956889  0.69119381     0.06900
C133        C  0.76476063  0.20836448  0.69355328    -0.06200
H134        H  0.71918037  0.18077471  0.71380584     0.07600
H135        H  0.77953285  0.21265537  0.68252619     0.08800
Cu136      Cu  0.72263233  0.22429998  0.75119524     0.44200
Cu137      Cu  0.77427542  0.25109175  0.72503267     0.42000
Cu138      Cu  0.74813650  0.27609345  0.77684599     0.43900
N139        N  0.70886100  0.24108449  0.78029353    -0.34800
N140        N  0.71821049  0.26012175  0.78954790    -0.29100
C141        C  0.70538980  0.26676071  0.80809665    -0.05200
C142        C  0.68698375  0.25111512  0.81079364     0.07000
C143        C  0.68981255  0.23505178  0.79276027     0.00800
H144        H  0.70950232  0.28173078  0.81894649     0.08500
H145        H  0.67887056  0.22008586  0.78883311     0.07500
N146        N  0.77798316  0.28928980  0.76114059    -0.36300
N147        N  0.78754176  0.28030227  0.74212113    -0.28500
C148        C  0.80653337  0.29302041  0.73638848    -0.03700
C149        C  0.80909863  0.31097277  0.75261200     0.04900
C150        C  0.79058927  0.30792965  0.76804645     0.03000
H151        H  0.81747602  0.28943326  0.72138221     0.08100
H152        H  0.78643496  0.31838029  0.78325786     0.06900
O153        O  0.52581292  0.73016405  0.97629331    -0.73100
O154        O  0.47603044  0.73177028  0.02584185    -0.74100
O155        O  0.47607985  0.72995088  0.97616550    -0.62700
O156        O  0.52592647  0.73220075  0.02591881    -0.71100
O157        O  0.52528628  0.77101490  0.02464858    -0.70700
O158        O  0.47603726  0.76875812  0.97487105    -0.61900
O159        O  0.47574874  0.77058149  0.02453102    -0.74400
O160        O  0.52587766  0.76898370  0.97516092    -0.73200
Cu161      Cu  0.50096001  0.72966028  0.00111487     1.04600
Cu162      Cu  0.50071765  0.77116435  0.99973213     1.04300
C163        C  0.53381097  0.74932238  0.96793972     0.93100
C164        C  0.46803250  0.75138543  0.03308949     0.92200
C165        C  0.46819199  0.74907693  0.96761852     0.84400
C166        C  0.53348683  0.75203336  0.03313259     0.90600
O167        O  0.47299770  0.26834933  0.97700287    -0.73100
O168        O  0.52301351  0.26770024  0.02617297    -0.74100
O169        O  0.52279914  0.26874934  0.97668325    -0.62700
O170        O  0.47332761  0.26724113  0.02646387    -0.71100
O171        O  0.47360438  0.22840949  0.02564206    -0.70700
O172        O  0.52306341  0.22992070  0.97587547    -0.61900
O173        O  0.52316842  0.22885845  0.02554978    -0.74400
O174        O  0.47336550  0.22952087  0.97608838    -0.73200
Cu175      Cu  0.49802405  0.26935883  0.00159362     1.04600
Cu176      Cu  0.49831466  0.22782722  0.00073448     1.04300
C177        C  0.46516891  0.24902964  0.96882652     0.93100
C178        C  0.53095818  0.24820125  0.03372365     0.92200
C179        C  0.53083565  0.24955429  0.96843819     0.84400
C180        C  0.46567314  0.24759579  0.03398840     0.90600
N181        N  0.71990313  0.73903675  0.78756644    -0.27500
N182        N  0.71124748  0.75888547  0.77946851    -0.35300
C183        C  0.69295230  0.76528483  0.79282245     0.00900
C184        C  0.68987533  0.74860931  0.81020451     0.06900
C185        C  0.70736248  0.73223710  0.80624942    -0.06200
H186        H  0.68255780  0.78081765  0.78982822     0.07600
H187        H  0.71094859  0.71658371  0.81625385     0.08800
Cu188      Cu  0.72461550  0.77620155  0.75054199     0.44200
Cu189      Cu  0.74840273  0.72206790  0.77306379     0.42000
Cu190      Cu  0.77519769  0.74942194  0.72290753     0.43900
N191        N  0.74120113  0.78970285  0.72125516    -0.34800
N192        N  0.75960906  0.77992647  0.71123760    -0.29100
C193        C  0.76597466  0.79278663  0.69263117    -0.05200
C194        C  0.75082253  0.81167610  0.69072479     0.07000
C195        C  0.73534060  0.80906745  0.70926966     0.00800
H196        H  0.78045045  0.78839197  0.68126678     0.08500
H197        H  0.72079861  0.82028615  0.71383788     0.07500
N198        N  0.78759268  0.71899240  0.73805730    -0.36300
N199        N  0.77765077  0.70889641  0.75630762    -0.28500
C200        C  0.79004972  0.68981818  0.76222276    -0.03700
C201        C  0.80883531  0.68780600  0.74699814     0.04900
C202        C  0.80664985  0.70665472  0.73188031     0.03000
H203        H  0.78594107  0.67866488  0.77694087     0.08100
H204        H  0.81805058  0.71123026  0.71748550     0.06900
N205        N  0.71920144  0.25866210  0.21160717    -0.27500
N206        N  0.70917427  0.24053165  0.22186692    -0.35300
C207        C  0.69000084  0.23436751  0.20967038     0.00900
C208        C  0.68777363  0.24934650  0.19068813     0.06900
C209        C  0.70668837  0.26454207  0.19258393    -0.06200
H210        H  0.67861333  0.22000171  0.21442277     0.07600
H211        H  0.71128824  0.27874090  0.18095802     0.08800
Cu212      Cu  0.72225974  0.22476893  0.25171661     0.44200
Cu213      Cu  0.74947373  0.27449727  0.22390272     0.42000
Cu214      Cu  0.77606888  0.24919034  0.27547693     0.43900
N215        N  0.73914566  0.21172912  0.28097805    -0.34800
N216        N  0.75877859  0.22048384  0.28957304    -0.29100
C217        C  0.76501319  0.20805007  0.30853258    -0.05200
C218        C  0.74848379  0.19054980  0.31214675     0.07000
C219        C  0.73235747  0.19351404  0.29421394     0.00800
H220        H  0.78044900  0.21169200  0.31887501     0.08500
H221        H  0.71676740  0.18328695  0.29085964     0.07500
N222        N  0.78904965  0.27865279  0.25859805    -0.36300
N223        N  0.77929118  0.28782127  0.23976591    -0.28500
C224        C  0.79153625  0.30684781  0.23327368    -0.03700
C225        C  0.81000678  0.30995311  0.24877141     0.04900
C226        C  0.80778999  0.29163936  0.26460969     0.03000
H227        H  0.78701332  0.31769417  0.21845852     0.08100
H228        H  0.81890450  0.28789256  0.27945700     0.06900
N229        N  0.27701820  0.25905063  0.79109115    -0.27500
N230        N  0.28675722  0.24041757  0.78147530    -0.35300
C231        C  0.30569999  0.23434070  0.79403241     0.00900
C232        C  0.30803815  0.24992299  0.81253586     0.06900
C233        C  0.28946267  0.26535861  0.81001006    -0.06200
H234        H  0.31675054  0.21952174  0.78995934     0.07600
H235        H  0.28522233  0.28022259  0.82093857     0.08800
Cu236      Cu  0.27389652  0.22413988  0.75175220     0.44200
Cu237      Cu  0.24745339  0.27528118  0.77809768     0.42000
Cu238      Cu  0.22414798  0.25188723  0.72416090     0.43900
N239        N  0.25781046  0.21149086  0.72183159    -0.34800
N240        N  0.23968413  0.22169415  0.71173173    -0.29100
C241        C  0.23325678  0.20912126  0.69292064    -0.05200
C242        C  0.24809154  0.19000884  0.69100457     0.07000
C243        C  0.26346030  0.19215061  0.70968483     0.00800
H244        H  0.21890596  0.21374658  0.68147352     0.08500
H245        H  0.27757171  0.18043551  0.71437189     0.07500
N246        N  0.21046607  0.28074169  0.74109855    -0.36300
N247        N  0.21879720  0.28910603  0.76096496    -0.28500
C248        C  0.20590732  0.30763811  0.76751223    -0.03700
C249        C  0.18854260  0.31119888  0.75091305     0.04900
C250        C  0.19204714  0.29372511  0.73441700     0.03000
H251        H  0.20906674  0.31762930  0.78327018     0.08100
H252        H  0.18211341  0.29057721  0.71862146     0.06900
N253        N  0.24083447  0.78072653  0.28941405    -0.27500
N254        N  0.26058287  0.78935165  0.28100033    -0.35300
C255        C  0.26671339  0.80828322  0.29358842     0.00900
C256        C  0.25002115  0.81181703  0.31089494     0.06900
C257        C  0.23385246  0.79393075  0.30758214    -0.06200
H258        H  0.28241009  0.81841554  0.29045299     0.07600
H259        H  0.21820920  0.79048482  0.31766815     0.08800
Cu260      Cu  0.27849514  0.77483335  0.25302048     0.44200
Cu261      Cu  0.22459662  0.75100135  0.27633330     0.42000
Cu262      Cu  0.25260388  0.72323061  0.22668632     0.43900
N263        N  0.29237637  0.75795476  0.22408758    -0.34800
N264        N  0.28285216  0.73926422  0.21429473    -0.27500
C265        C  0.29562441  0.73317796  0.19547990    -0.05200
C266        C  0.31417215  0.74879301  0.19326886     0.07000
C267        C  0.31146926  0.76422681  0.21183245     0.00800
H268        H  0.29154556  0.71847499  0.18425975     0.08500
H269        H  0.32221032  0.77928595  0.21594921     0.07500
N270        N  0.22223420  0.71069777  0.24235459    -0.36300
N271        N  0.21208704  0.72081337  0.26050118    -0.28500
C272        C  0.19290695  0.70848906  0.26643564    -0.03700
C273        C  0.19073630  0.68962731  0.25125676     0.04900
C274        C  0.20973427  0.69167594  0.23622386     0.03000
H275        H  0.18131873  0.71319135  0.28063701     0.08100
H276        H  0.21433152  0.68017576  0.22191346     0.06900
C277        C  0.44644740  0.24923688  0.95095807    -0.03500
C278        C  0.43545011  0.27035431  0.94463485    -0.09300
C279        C  0.41770862  0.27049206  0.92778583    -0.16900
C280        C  0.41080629  0.24957412  0.91703594     0.25200
C281        C  0.42158041  0.22848412  0.92324609    -0.18600
C282        C  0.43927279  0.22828506  0.94013243    -0.07500
C283        C  0.39287252  0.24976088  0.89942234    -0.14000
C284        C  0.37805652  0.24982430  0.88443761    -0.13700
C285        C  0.36054488  0.24987128  0.86640609     0.25100
C286        C  0.34126682  0.26485242  0.86809561    -0.19100
C287        C  0.32421848  0.26492760  0.85056547    -0.07600
C288        C  0.32623355  0.24997511  0.83106679    -0.03600
C289        C  0.34576890  0.23500931  0.82954877    -0.09000
C290        C  0.36278930  0.23497427  0.84711682    -0.16600
H291        H  0.44050770  0.28675392  0.95272841     0.11500
H292        H  0.40944146  0.28690625  0.92308824     0.10800
H293        H  0.41635404  0.21220596  0.91498903     0.10800
H294        H  0.44739471  0.21175354  0.94461839     0.11300
H295        H  0.33938340  0.27645016  0.88298960     0.11400
H296        H  0.30943237  0.27659224  0.85249309     0.11300
H297        H  0.34806884  0.22337596  0.81479639     0.11500
H298        H  0.37770935  0.22334063  0.84564172     0.10300
C299        C  0.54924551  0.24805854  0.05203168    -0.03500
C300        C  0.55494050  0.22721480  0.06383517    -0.09300
C301        C  0.57219027  0.22716852  0.08120408    -0.16900
C302        C  0.58402031  0.24789170  0.08687850     0.25200
C303        C  0.57849473  0.26869430  0.07520789    -0.18600
C304        C  0.56116995  0.26881473  0.05793427    -0.07500
C305        C  0.60183940  0.24784583  0.10465690    -0.14000
C306        C  0.61678810  0.24799429  0.11954034    -0.13700
C307        C  0.63459879  0.24831079  0.13732950     0.25100
C308        C  0.63584295  0.23018272  0.15370672    -0.19100
C309        C  0.65309287  0.23050690  0.17106496    -0.07600
C310        C  0.66938826  0.24901438  0.17228705    -0.03600
C311        C  0.66794465  0.26716334  0.15567833    -0.09000
C312        C  0.65067112  0.26678723  0.13834090    -0.16600
H313        H  0.54597845  0.21098907  0.05975337     0.11500
H314        H  0.57631583  0.21098117  0.09017953     0.10800
H315        H  0.58757219  0.28482268  0.07946379     0.10800
H316        H  0.55722424  0.28511628  0.04910530     0.11300
H317        H  0.62348366  0.21577573  0.15305671     0.11400
H318        H  0.65364956  0.21614965  0.18336749     0.11300
H319        H  0.68000934  0.28176902  0.15605436     0.11500
H320        H  0.64983022  0.28093848  0.12574943     0.10300
C321        C  0.67178563  0.74824351  0.82882907    -0.03500
C322        C  0.65861507  0.76843940  0.83393129    -0.09300
C323        C  0.64154044  0.76804724  0.85145477    -0.16900
C324        C  0.63735237  0.74749494  0.86409462     0.25200
C325        C  0.65033009  0.72731490  0.85917263    -0.18600
C326        C  0.66744671  0.72766756  0.84168729    -0.07500
C327        C  0.61976913  0.74716111  0.88212691    -0.14000
C328        C  0.60500908  0.74718479  0.89720907    -0.13700
C329        C  0.58731858  0.74762413  0.91513987     0.25100
C330        C  0.57538135  0.72708281  0.92119702    -0.19100
C331        C  0.55804786  0.72758690  0.93848062    -0.07600
C332        C  0.55233403  0.74871300  0.94982386    -0.03600
C333        C  0.56447958  0.76925076  0.94365069    -0.09000
C334        C  0.58189322  0.76867466  0.92645977    -0.16600
H335        H  0.66158169  0.78463476  0.82458011     0.11500
H336        H  0.63162525  0.78379270  0.85516530     0.10800
H337        H  0.64720085  0.71128965  0.86882871     0.10800
H338        H  0.67705320  0.71173637  0.83814585     0.11300
H339        H  0.57943014  0.71069460  0.91253090     0.11400
H340        H  0.54898312  0.71149175  0.94280736     0.11300
H341        H  0.56058377  0.78574803  0.95215451     0.11500
H342        H  0.59106246  0.78466790  0.92193609     0.10300
C343        C  0.44985287  0.75183445  0.05156882    -0.03500
C344        C  0.44412584  0.77288973  0.06303368    -0.09300
C345        C  0.42723914  0.77316224  0.08077927    -0.16900
C346        C  0.41577341  0.75244973  0.08719401     0.25200
C347        C  0.42124107  0.73146906  0.07576528    -0.18600
C348        C  0.43820022  0.73112677  0.05812196    -0.07500
C349        C  0.39849222  0.75260706  0.10556077    -0.14000
C350        C  0.38399506  0.75219952  0.12091448    -0.13700
C351        C  0.36659446  0.75124520  0.13914578     0.25100
C352        C  0.36914789  0.76489647  0.15931981    -0.19100
C353        C  0.35220477  0.76400653  0.17697665    -0.07600
C354        C  0.33241213  0.74941229  0.17471588    -0.03600
C355        C  0.33011843  0.73564162  0.15439663    -0.09000
C356        C  0.34707695  0.73658488  0.13676175    -0.16600
H357        H  0.45285158  0.78910138  0.05845534     0.11500
H358        H  0.42317072  0.78950327  0.08952181     0.10800
H359        H  0.41245362  0.71534017  0.08055439     0.10800
H360        H  0.44214389  0.71465985  0.04958054     0.11300
H361        H  0.38423337  0.77624793  0.16140675     0.11400
H362        H  0.35474843  0.77469913  0.19239427     0.11300
H363        H  0.31512666  0.72431304  0.15190108     0.11500
H364        H  0.34491755  0.72592119  0.12121980     0.10300
C365        C  0.66864821  0.25132552  0.82921479    -0.03500
C366        C  0.66578893  0.27099190  0.84382683    -0.09300
C367        C  0.64875381  0.27105789  0.86139048    -0.16900
C368        C  0.63433278  0.25151131  0.86462125     0.25200
C369        C  0.63693606  0.23191098  0.85015966    -0.18600
C370        C  0.65394600  0.23180028  0.83256549    -0.07500
C371        C  0.61686236  0.25154752  0.88275559    -0.14000
C372        C  0.60212324  0.25139424  0.89784934    -0.13700
C373        C  0.58435168  0.25094871  0.91568326     0.25100
C374        C  0.57777497  0.27165466  0.92702250    -0.19100
C375        C  0.56031411  0.27123911  0.94417086    -0.07600
C376        C  0.54927063  0.25005067  0.95024671    -0.03600
C377        C  0.55608588  0.22931514  0.93881305    -0.09000
C378        C  0.57348113  0.22979425  0.92161307    -0.16600
H379        H  0.67657350  0.28642708  0.84169763     0.11500
H380        H  0.64683876  0.28635936  0.87245087     0.10800
H381        H  0.62585923  0.21667045  0.85252632     0.10800
H382        H  0.65567796  0.21629833  0.82182382     0.11300
H383        H  0.58610008  0.28812296  0.92257461     0.11400
H384        H  0.55553233  0.28747834  0.95271792     0.11300
H385        H  0.54790040  0.21273673  0.94306231     0.11500
H386        H  0.57842810  0.21367057  0.91291903     0.10300
C387        C  0.04991392  0.44900644  0.75168790    -0.03500
C388        C  0.05655685  0.43821642  0.73058099    -0.09300
C389        C  0.07408476  0.42120069  0.73036619    -0.16900
C390        C  0.08519320  0.41482156  0.75119550     0.25200
C391        C  0.07874535  0.42543485  0.77228810    -0.18600
C392        C  0.06116527  0.44243157  0.77256528    -0.07500
C393        C  0.10313331  0.39728732  0.75090838    -0.14000
C394        C  0.11806781  0.38246412  0.75066303    -0.13700
C395        C  0.13578260  0.36469975  0.75059361     0.25100
C396        C  0.13511101  0.34679113  0.73392953    -0.19100
C397        C  0.15225428  0.32936503  0.73400650    -0.07600
C398        C  0.17031914  0.32966485  0.75078932    -0.03600
C399        C  0.17078961  0.34783472  0.76744850    -0.09000
C400        C  0.15361892  0.36521914  0.76732786    -0.16600
H401        H  0.04821220  0.44289685  0.71422754     0.11500
H402        H  0.07897545  0.41303197  0.71396664     0.10800
H403        H  0.08729591  0.42057363  0.78849626     0.10800
H404        H  0.05648856  0.45049257  0.78906598     0.11300
H405        H  0.12130042  0.34625424  0.72092401     0.11400
H406        H  0.15116745  0.31566500  0.72098751     0.11300
H407        H  0.18441691  0.34880624  0.78055090     0.11500
H408        H  0.15425157  0.37905991  0.78029642     0.10300
C409        C  0.94953027  0.55207865  0.75111278    -0.03500
C410        C  0.94392200  0.56374094  0.73018917    -0.09300
C411        C  0.92677520  0.58116357  0.72996818    -0.16900
C412        C  0.91498960  0.58703312  0.75059472     0.25200
C413        C  0.92045996  0.57555918  0.77149872    -0.18600
C414        C  0.93768974  0.55821043  0.77179334    -0.07500
C415        C  0.89708928  0.60464598  0.75023248    -0.14000
C416        C  0.88189074  0.61921806  0.74973737    -0.13700
C417        C  0.86357251  0.63639004  0.74898669     0.25100
C418        C  0.86667960  0.65705606  0.73625238    -0.19100
C419        C  0.84881390  0.67374030  0.73544441    -0.07600
C420        C  0.82762416  0.66995432  0.74744786    -0.03600
C421        C  0.82468090  0.64905768  0.76015152    -0.09000
C422        C  0.84255388  0.63238633  0.76088762    -0.16600
H423        H  0.95281502  0.55945355  0.71401432     0.11500
H424        H  0.92264199  0.58998034  0.71370741     0.10800
H425        H  0.91136618  0.57997172  0.78753873     0.10800
H426        H  0.94157824  0.54946327  0.78813920     0.11300
H427        H  0.88292392  0.66029598  0.72698977     0.11400
H428        H  0.85178282  0.68968704  0.72567679     0.11300
H429        H  0.80854362  0.64544660  0.76939655     0.11500
H430        H  0.83997169  0.61637273  0.77072202     0.10300
C431        C  0.94710099  0.45054708  0.75347080    -0.03500
C432        C  0.93638480  0.44302109  0.73260182    -0.09300
C433        C  0.91874325  0.42603775  0.73306955    -0.16900
C434        C  0.91158809  0.41632321  0.75435751     0.25200
C435        C  0.92198373  0.42382018  0.77524361    -0.18600
C436        C  0.93961486  0.44085344  0.77483070    -0.07500
C437        C  0.89384864  0.39840677  0.75466091    -0.14000
C438        C  0.87917702  0.38320661  0.75454028    -0.13700
C439        C  0.86173257  0.36500298  0.75415981     0.25100
C440        C  0.84292118  0.36571587  0.76979442    -0.19100
C441        C  0.82586708  0.34813709  0.76935418    -0.07600
C442        C  0.82736954  0.32953308  0.75321828    -0.03600
C443        C  0.84645075  0.32897174  0.73761361    -0.09000
C444        C  0.86348516  0.34659080  0.73809862    -0.16600
H445        H  0.94166147  0.45020231  0.71588750     0.11500
H446        H  0.91078672  0.42037746  0.71680597     0.10800
H447        H  0.91656132  0.41640932  0.79182379     0.10800
H448        H  0.94748434  0.44629357  0.79119754     0.11300
H449        H  0.84138538  0.37990986  0.78229451     0.11400
H450        H  0.81147607  0.34933978  0.78157975     0.11300
H451        H  0.84835903  0.31495257  0.72503589     0.11500
H452        H  0.87801473  0.34585793  0.72592373     0.10300
C453        C  0.44990297  0.74852813  0.94923323    -0.03500
C454        C  0.44231457  0.72712641  0.93961535    -0.09300
C455        C  0.42515366  0.72674143  0.92213205    -0.16900
C456        C  0.41533041  0.74769908  0.91408171     0.25200
C457        C  0.42268984  0.76905289  0.92361572    -0.18600
C458        C  0.43986855  0.76949133  0.94104731    -0.07500
C459        C  0.39775189  0.74734263  0.89601071    -0.14000
C460        C  0.38299849  0.74725985  0.88089962    -0.13700
C461        C  0.36524769  0.74733270  0.86299298     0.25100
C462        C  0.36818010  0.76093887  0.84285937    -0.19100
C463        C  0.35077593  0.76128319  0.82562821    -0.07600
C464        C  0.33016628  0.74797463  0.82829225    -0.03600
C465        C  0.32748836  0.73422358  0.84855042    -0.09000
C466        C  0.34489598  0.73394839  0.86576821    -0.16600
H467        H  0.44969748  0.71069445  0.94551446     0.11500
H468        H  0.41957751  0.71010854  0.91487396     0.10800
H469        H  0.41518418  0.78537879  0.91754186     0.10800
H470        H  0.44526642  0.78625284  0.94811577     0.11300
H471        H  0.38389636  0.77133516  0.84049977     0.11400
H472        H  0.35358680  0.77188581  0.81021036     0.11300
H473        H  0.31183970  0.72389756  0.85133187     0.11500
H474        H  0.34241890  0.72337949  0.88130883     0.10300
C475        C  0.17177301  0.67073668  0.74833615    -0.03500
C476        C  0.17247679  0.65187698  0.76418040    -0.09300
C477        C  0.15513588  0.63458523  0.76376172    -0.16900
C478        C  0.13685543  0.63583558  0.74752651     0.25200
C479        C  0.13598582  0.65441326  0.73163091    -0.18600
C480        C  0.15330444  0.67174484  0.73200621    -0.07500
C481        C  0.11894312  0.61811207  0.74732241    -0.14000
C482        C  0.10401308  0.60318099  0.74754207    -0.13700
C483        C  0.08625077  0.58532071  0.74820855     0.25100
C484        C  0.07659284  0.57847686  0.76963122    -0.19100
C485        C  0.05928509  0.56115870  0.77034925    -0.07600
C486        C  0.05137717  0.55049789  0.74959578    -0.03600
C487        C  0.06125516  0.55745477  0.72814131    -0.09000
C488        C  0.07859726  0.57475133  0.72747883    -0.16600
H489        H  0.18639132  0.65033078  0.77691857     0.11500
H490        H  0.15597666  0.62024546  0.77613785     0.10800
H491        H  0.12187803  0.65555227  0.71899254     0.10800
H492        H  0.15202325  0.68594604  0.71957909     0.11300
H493        H  0.08241608  0.58655070  0.78578003     0.11400
H494        H  0.05202522  0.55621792  0.78713392     0.11300
H495        H  0.05558487  0.54955769  0.71186534     0.11500
H496        H  0.08599706  0.57990683  0.71080722     0.10300
C497        C  0.74813258  0.17260292  0.33097188    -0.03500
C498        C  0.72973110  0.15619475  0.33239680    -0.09300
C499        C  0.72960329  0.13911148  0.34988955    -0.16900
C500        C  0.74780887  0.13814720  0.36622556     0.25200
C501        C  0.76607564  0.15444716  0.36514733    -0.18600
C502        C  0.76625904  0.17155779  0.34767239    -0.07500
C503        C  0.74787641  0.12024144  0.38389202    -0.14000
C504        C  0.74789800  0.10504328  0.39849705    -0.13700
C505        C  0.74783172  0.08682779  0.41584177     0.25100
C506        C  0.76882522  0.07598472  0.42231998    -0.19100
C507        C  0.76879425  0.05841629  0.43932863    -0.07600
C508        C  0.74771267  0.05144048  0.45003495    -0.03600
C509        C  0.72667374  0.06233046  0.44326725    -0.09000
C510        C  0.72676427  0.07994046  0.42629895    -0.16600
H511        H  0.71541201  0.15637396  0.32002101     0.11500
H512        H  0.71535247  0.12657528  0.35059341     0.10800
H513        H  0.78026034  0.15385684  0.37773970     0.10800
H514        H  0.78070769  0.18380089  0.34727954     0.11300
H515        H  0.78522229  0.08115784  0.41428218     0.11400
H516        H  0.78526955  0.05032113  0.44409355     0.11300
H517        H  0.71016854  0.05737379  0.45119146     0.11500
H518        H  0.71041568  0.08822156  0.42138013     0.10300
C519        C  0.74837831  0.94951265  0.55186401    -0.03500
C520        C  0.72735706  0.93941654  0.55985241    -0.09300
C521        C  0.72774879  0.92208299  0.57709582    -0.16900
C522        C  0.74911012  0.91468946  0.58655804     0.25200
C523        C  0.77009328  0.92460303  0.57871333    -0.18600
C524        C  0.76975769  0.94189313  0.56145989    -0.07500
C525        C  0.74953392  0.89703249  0.60442022    -0.14000
C526        C  0.74999073  0.88233432  0.61949370    -0.13700
C527        C  0.75041284  0.86484909  0.63752724     0.25100
C528        C  0.76872257  0.84863136  0.63848153    -0.19100
C529        C  0.76897317  0.83144072  0.65586009    -0.07600
C530        C  0.75085022  0.83022639  0.67254027    -0.03600
C531        C  0.73261780  0.84679514  0.67148032    -0.09000
C532        C  0.73242460  0.86396178  0.65408666    -0.16600
H533        H  0.71062913  0.94487367  0.55277404     0.11500
H534        H  0.71140933  0.91448648  0.58307253     0.10800
H535        H  0.78671282  0.91899321  0.58595615     0.10800
H536        H  0.78623542  0.94932930  0.55570047     0.11300
H537        H  0.78277532  0.84922611  0.62575361     0.11400
H538        H  0.78339303  0.81918284  0.65611839     0.11300
H539        H  0.71833377  0.84647885  0.68388374     0.11500
H540        H  0.71817147  0.87647411  0.65348871     0.10300
C541        C  0.74911777  0.05109307  0.55242088    -0.03500
C542        C  0.77062067  0.05933991  0.56127061    -0.09300
C543        C  0.77111294  0.07620612  0.57900048    -0.16900
C544        C  0.75015980  0.08504726  0.58810902     0.25200
C545        C  0.72868789  0.07693283  0.57946334    -0.18600
C546        C  0.72814336  0.06005796  0.56173591    -0.07500
C547        C  0.75066969  0.10259075  0.60617485    -0.14000
C548        C  0.75084990  0.11746766  0.62114340    -0.13700
C549        C  0.75066156  0.13539603  0.63883825     0.25100
C550        C  0.73123805  0.13783028  0.65353901    -0.19100
C551        C  0.73085787  0.15540243  0.67057167    -0.07600
C552        C  0.74994102  0.17084889  0.67313920    -0.03600
C553        C  0.76941945  0.16820367  0.65825253    -0.09000
C554        C  0.76975450  0.15059161  0.64123952    -0.16600
H555        H  0.78707597  0.05276042  0.55452076     0.11500
H556        H  0.78782893  0.08237491  0.58557126     0.10800
H557        H  0.71236459  0.08367684  0.58639843     0.10800
H558        H  0.71131492  0.05404990  0.55533927     0.11300
H559        H  0.71632383  0.12619351  0.65177891     0.11400
H560        H  0.71548963  0.15694292  0.68151517     0.11300
H561        H  0.78450065  0.17958369  0.65976546     0.11500
H562        H  0.78489925  0.14884929  0.62994201     0.10300
C563        C  0.25052036  0.94942579  0.45054454    -0.03500
C564        C  0.22940930  0.93928194  0.44280040    -0.09300
C565        C  0.22959844  0.92162152  0.42585794    -0.16900
C566        C  0.25084475  0.91389164  0.41642038     0.25200
C567        C  0.27194262  0.92378576  0.42407222    -0.18600
C568        C  0.27180729  0.94143230  0.44104203    -0.07500
C569        C  0.25094200  0.89608109  0.39862006    -0.14000
C570        C  0.25082148  0.88142163  0.38344483    -0.13700
C571        C  0.25050075  0.86411931  0.36515138     0.25100
C572        C  0.23339550  0.84657218  0.36511521    -0.19100
C573        C  0.23309478  0.82969616  0.34739279    -0.07600
C574        C  0.24996079  0.83010814  0.32941190    -0.03600
C575        C  0.26697782  0.84799906  0.32954906    -0.09000
C576        C  0.26723179  0.86485026  0.34730378    -0.16600
H577        H  0.21273847  0.94498139  0.44981512     0.11500
H578        H  0.21316810  0.91407047  0.42004721     0.10800
H579        H  0.28848523  0.91793089  0.41685724     0.10800
H580        H  0.28835306  0.94885511  0.44664905     0.11300
H581        H  0.22032133  0.84587999  0.37883816     0.11400
H582        H  0.21973921  0.81627252  0.34801476     0.11300
H583        H  0.28015634  0.84908306  0.31601408     0.11500
H584        H  0.28050814  0.87843187  0.34712308     0.10300
C585        C  0.24765333  0.17140801  0.67292667    -0.03500
C586        C  0.22783576  0.16828189  0.65858678    -0.09300
C587        C  0.22758408  0.15088282  0.64137265    -0.16900
C588        C  0.24711523  0.13643432  0.63823966     0.25200
C589        C  0.26684296  0.13931297  0.65247290    -0.18600
C590        C  0.26712411  0.15665281  0.66972345    -0.07500
C591        C  0.24707961  0.11882873  0.62025571    -0.14000
C592        C  0.24741069  0.10414580  0.60511671    -0.13700
C593        C  0.24799515  0.08664145  0.58703853     0.25100
C594        C  0.26885860  0.07474639  0.58213816    -0.19100
C595        C  0.26941596  0.05765451  0.56461625    -0.07600
C596        C  0.24903227  0.05216867  0.55188746    -0.03600
C597        C  0.22816359  0.06426801  0.55691758    -0.09000
C598        C  0.22768589  0.08143798  0.57434486    -0.16600
H599        H  0.21245052  0.17913056  0.66070202     0.11500
H600        H  0.21219240  0.14875162  0.63046496     0.10800
H601        H  0.28207585  0.12823745  0.65014585     0.10800
H602        H  0.28273678  0.15865570  0.68027579     0.11300
H603        H  0.28467732  0.07865341  0.59188240     0.11400
H604        H  0.28572059  0.04859122  0.56119348     0.11300
H605        H  0.21221820  0.06052222  0.54733819     0.11500
H606        H  0.21146531  0.09059543  0.57796600     0.10300
C607        C  0.24975977  0.82980861  0.67225031    -0.03500
C608        C  0.26535617  0.84891420  0.67333903    -0.09300
C609        C  0.26530911  0.86604964  0.65586976    -0.16900
C610        C  0.24970482  0.86438174  0.63706682     0.25200
C611        C  0.23408379  0.84553959  0.63581791    -0.18600
C612        C  0.23408742  0.82838213  0.65324968    -0.07500
C613        C  0.24973760  0.88197229  0.61904606    -0.14000
C614        C  0.24976104  0.89673963  0.60398164    -0.13700
C615        C  0.24978074  0.91450695  0.58613711     0.25100
C616        C  0.22872285  0.92495255  0.57920917    -0.19100
C617        C  0.22873787  0.94240632  0.56206845    -0.07600
C618        C  0.24986955  0.94969634  0.55167766    -0.03600
C619        C  0.27094554  0.93902260  0.55870101    -0.09000
C620        C  0.27087293  0.92152464  0.57580226    -0.16600
H621        H  0.27758966  0.85077135  0.68766677     0.11500
H622        H  0.27746155  0.88059951  0.65703128     0.10800
H623        H  0.22192323  0.84406763  0.62132748     0.10800
H624        H  0.22187895  0.81398232  0.65163765     0.11300
H625        H  0.21229534  0.91965102  0.58709854     0.11400
H626        H  0.21222285  0.95026288  0.55705115     0.11300
H627        H  0.28748930  0.94415946  0.55097221     0.11500
H628        H  0.28727203  0.91352801  0.58101522     0.10300
C629        C  0.67525072  0.75736163  0.16790897    -0.03500
C630        C  0.67248874  0.73837637  0.15242851    -0.09300
C631        C  0.65514324  0.73881494  0.13520055    -0.16900
C632        C  0.64034583  0.75820297  0.13315567     0.25200
C633        C  0.64310419  0.77731983  0.14822423    -0.18600
C634        C  0.66044092  0.77692557  0.16549956    -0.07500
C635        C  0.62198302  0.75813015  0.11595997    -0.14000
C636        C  0.60644714  0.75733702  0.10172185    -0.13700
C637        C  0.58788461  0.75589993  0.08479365     0.25100
C638        C  0.58246339  0.73441528  0.07427926    -0.19100
C639        C  0.56454662  0.73302690  0.05764480    -0.07600
C640        C  0.55194206  0.75318586  0.05125424    -0.03600
C641        C  0.55743285  0.77466667  0.06205360    -0.09000
C642        C  0.57526039  0.77598273  0.07875279    -0.16600
H643        H  0.68340713  0.72297082  0.15378575     0.11500
H644        H  0.65310864  0.72390546  0.12363122     0.10800
H645        H  0.63174580  0.79244392  0.14674342     0.10800
H646        H  0.66217640  0.79195793  0.17689418     0.11300
H647        H  0.59214549  0.71876247  0.07886884     0.11400
H648        H  0.56076866  0.71626927  0.04959015     0.11300
H649        H  0.54796816  0.79047547  0.05758846     0.11500
H650        H  0.57927453  0.79267649  0.08685387     0.10300
C651        C  0.74719494  0.94891146  0.45063263    -0.03500
C652        C  0.76849155  0.93983006  0.44219933    -0.09300
C653        C  0.76859283  0.92227568  0.42520364    -0.16900
C654        C  0.74745645  0.91355496  0.41641560     0.25200
C655        C  0.72614836  0.92234263  0.42475194    -0.18600
C656        C  0.72599288  0.93993002  0.44179102    -0.07500
C657        C  0.74777386  0.89584572  0.39858543    -0.14000
C658        C  0.74859032  0.88128675  0.38337759    -0.13700
C659        C  0.74968205  0.86419324  0.36499018     0.25100
C660        C  0.73658947  0.86741654  0.34458696    -0.19100
C661        C  0.73732375  0.85067935  0.32678933    -0.07600
C662        C  0.75118061  0.83043836  0.32918642    -0.03600
C663        C  0.76454967  0.82754033  0.34967832    -0.09000
C664        C  0.76377232  0.84432316  0.36746448    -0.16600
H665        H  0.78510925  0.94631536  0.44868043     0.11500
H666        H  0.78516887  0.91557535  0.41884133     0.10800
H667        H  0.70968682  0.91568098  0.41802091     0.10800
H668        H  0.70931937  0.94652275  0.44797097     0.11300
H669        H  0.72573438  0.88283191  0.34246630     0.11400
H670        H  0.72703163  0.85370307  0.31120175     0.11300
H671        H  0.77534145  0.81219300  0.35221786     0.11500
H672        H  0.77402561  0.84171970  0.38320383     0.10300
C673        C  0.04998107  0.55245279  0.25006887    -0.03500
C674        C  0.06083137  0.55934421  0.22905615    -0.09300
C675        C  0.07831896  0.57652788  0.22910740    -0.16900
C676        C  0.08515485  0.58712636  0.25011298     0.25200
C677        C  0.07438954  0.58048576  0.27108745    -0.18600
C678        C  0.05694226  0.56324555  0.27109478    -0.07500
C679        C  0.10325966  0.60473631  0.25015781    -0.14000
C680        C  0.11845602  0.61944782  0.25026544    -0.13700
C681        C  0.13659933  0.63701605  0.25051597     0.25100
C682        C  0.15206920  0.63902289  0.23164341    -0.19100
C683        C  0.16969276  0.65607165  0.23188271    -0.07600
C684        C  0.17209246  0.67142199  0.25103219    -0.03600
C685        C  0.15642001  0.66922362  0.26993076    -0.09000
C686        C  0.13883197  0.65214186  0.26965402    -0.16600
H687        H  0.05591332  0.55136884  0.21257624     0.11500
H688        H  0.08652961  0.58151698  0.21276655     0.10800
H689        H  0.07951925  0.58859400  0.28744988     0.10800
H690        H  0.04889544  0.55840007  0.28754587     0.11300
H691        H  0.15049132  0.62742949  0.21670886     0.11400
H692        H  0.18124541  0.65728722  0.21694335     0.11300
H693        H  0.15776990  0.68053472  0.28505446     0.11500
H694        H  0.12698424  0.65072270  0.28439262     0.10300
C695        C  0.94751869  0.45029239  0.24888749    -0.03500
C696        C  0.94191735  0.43770808  0.26928287    -0.09300
C697        C  0.92447238  0.42048324  0.26886865    -0.16900
C698        C  0.91230124  0.41571000  0.24813931     0.25200
C699        C  0.91766966  0.42822002  0.22778845    -0.18600
C700        C  0.93520367  0.44535563  0.22812375    -0.07500
C701        C  0.89441304  0.39789629  0.24776307    -0.14000
C702        C  0.87959234  0.38281355  0.24772189    -0.13700
C703        C  0.86209250  0.36461679  0.24799321     0.25100
C704        C  0.86072050  0.34921118  0.26695905    -0.19100
C705        C  0.84382027  0.33145275  0.26724727    -0.07600
C706        C  0.82798982  0.32882876  0.24852100    -0.03600
C707        C  0.82953498  0.34447775  0.22953638    -0.09000
C708        C  0.84645781  0.36221438  0.22929782    -0.16600
H709        H  0.95112583  0.44105018  0.28551303     0.11500
H710        H  0.92048727  0.41087980  0.28471585     0.10800
H711        H  0.90834316  0.42469829  0.21165154     0.10800
H712        H  0.93902298  0.45482352  0.21216634     0.11300
H713        H  0.87272492  0.35092345  0.28155170     0.11400
H714        H  0.84316916  0.31992559  0.28222818     0.11300
H715        H  0.81783199  0.34302814  0.21472986     0.11500
H716        H  0.84737255  0.37402223  0.21449662     0.10300
C717        C  0.94754751  0.55177258  0.24981150    -0.03500
C718        C  0.93547283  0.55725342  0.27055075    -0.09300
C719        C  0.91797285  0.57434582  0.27054826    -0.16900
C720        C  0.91242485  0.58619886  0.24987567     0.25200
C721        C  0.92430786  0.58085520  0.22916049    -0.18600
C722        C  0.94173367  0.56369725  0.22908997    -0.07500
C723        C  0.89466211  0.60397271  0.24992934    -0.14000
C724        C  0.87991793  0.61902083  0.24987042    -0.13700
C725        C  0.86246915  0.63710100  0.24974835     0.25100
C726        C  0.84461301  0.63678969  0.23300818    -0.19100
C727        C  0.82764499  0.65440410  0.23285423    -0.07600
C728        C  0.82833702  0.67260040  0.24948163    -0.03600
C729        C  0.84644206  0.67271381  0.26622579    -0.09000
C730        C  0.86337183  0.65507387  0.26633495    -0.16600
H731        H  0.93947825  0.54828219  0.28674579     0.11500
H732        H  0.90882719  0.57835991  0.28666365     0.10800
H733        H  0.92013278  0.58997547  0.21307885     0.10800
H734        H  0.95075354  0.55989329  0.21286632     0.11300
H735        H  0.84378547  0.62291516  0.22008730     0.11400
H736        H  0.81398213  0.65358759  0.21977484     0.11300
H737        H  0.84772564  0.68643362  0.27920395     0.11500
H738        H  0.87718722  0.65547716  0.27934076     0.10300
C739        C  0.32938026  0.24950984  0.17423412    -0.03500
C740        C  0.34791128  0.23333017  0.17613277    -0.09300
C741        C  0.36538893  0.23233732  0.15905359    -0.16900
C742        C  0.36461726  0.24747969  0.13987162     0.25200
C743        C  0.34639538  0.26370685  0.13785518    -0.18600
C744        C  0.32889141  0.26474184  0.15489821    -0.07500
C745        C  0.38242386  0.24637139  0.12215902    -0.14000
C746        C  0.39701749  0.24597280  0.10696359    -0.13700
C747        C  0.41412775  0.24625807  0.08854807     0.25100
C748        C  0.42450626  0.22538565  0.08101213    -0.19100
C749        C  0.44116155  0.22576242  0.06309499    -0.07600
C750        C  0.44767896  0.24707322  0.05257599    -0.03600
C751        C  0.43704604  0.26793690  0.06021673    -0.09000
C752        C  0.42035447  0.26750022  0.07807127    -0.16600
H753        H  0.34907066  0.22144526  0.19079642     0.11500
H754        H  0.37947348  0.21974384  0.16079838     0.10800
H755        H  0.34565805  0.27551073  0.12304003     0.10800
H756        H  0.31492884  0.27733566  0.15271697     0.11300
H757        H  0.41976370  0.20884597  0.08900406     0.11400
H758        H  0.44905865  0.20941290  0.05762423     0.11300
H759        H  0.44162520  0.28460331  0.05242116     0.11500
H760        H  0.41234897  0.28374050  0.08374703     0.10300
C761        C  0.24810714  0.17176976  0.32945975    -0.03500
C762        C  0.23272611  0.17299872  0.34866946    -0.09300
C763        C  0.23321154  0.15582370  0.36607676    -0.16900
C764        C  0.24904167  0.13719977  0.36455616     0.25200
C765        C  0.26445491  0.13582186  0.34560818    -0.18600
C766        C  0.26401331  0.15295785  0.32818035    -0.07500
C767        C  0.24937995  0.11942791  0.38235603    -0.14000
C768        C  0.24957703  0.10448524  0.39722362    -0.13700
C769        C  0.24968535  0.08666862  0.41498512     0.25100
C770        C  0.27085870  0.07942203  0.42496765    -0.19100
C771        C  0.27096229  0.06215664  0.44229613    -0.07600
C772        C  0.24983918  0.05194290  0.44987854    -0.03600
C773        C  0.22864334  0.05935423  0.43971216    -0.09000
C774        C  0.22859473  0.07659089  0.42236525    -0.16600
H775        H  0.22035925  0.18722540  0.35040899     0.11500
H776        H  0.22121845  0.15706454  0.38071335     0.10800
H777        H  0.27676916  0.12144979  0.34425348     0.10800
H778        H  0.27604191  0.15125369  0.31367910     0.11300
H779        H  0.28728311  0.08712653  0.41937344     0.11400
H780        H  0.28756347  0.05685886  0.44977929     0.11300
H781        H  0.21209161  0.05182115  0.44512481     0.11500
H782        H  0.21210840  0.08207392  0.41473314     0.10300
C783        C  0.16985592  0.32979368  0.24984306    -0.03500
C784        C  0.16869505  0.34625749  0.23154428    -0.09300
C785        C  0.15107080  0.36324747  0.23117922    -0.16900
C786        C  0.13437703  0.36405393  0.24906234     0.25200
C787        C  0.13532777  0.34780302  0.26731202    -0.18600
C788        C  0.15291974  0.33080273  0.26772981    -0.07500
C789        C  0.11642722  0.38170599  0.24885838    -0.14000
C790        C  0.10152786  0.39664081  0.24893548    -0.13700
C791        C  0.08393360  0.41464448  0.24913803     0.25100
C792        C  0.07741403  0.42562231  0.22826516    -0.19100
C793        C  0.06038013  0.44318634  0.22842558    -0.07600
C794        C  0.04969969  0.45004482  0.24952057    -0.03600
C795        C  0.05642271  0.43894785  0.27043793    -0.09000
C796        C  0.07341110  0.42132330  0.27021597    -0.16600
H797        H  0.18126049  0.34603988  0.21739981     0.11500
H798        H  0.15048556  0.37576893  0.21695762     0.10800
H799        H  0.12251019  0.34831719  0.28128133     0.10800
H800        H  0.15322418  0.31860692  0.28217947     0.11300
H801        H  0.08549458  0.42060677  0.21186501     0.11400
H802        H  0.05562956  0.45142644  0.21204529     0.11300
H803        H  0.04847850  0.44378412  0.28694653     0.11500
H804        H  0.07834833  0.41292469  0.28647369     0.10300
loop_ 
_geom_bond_atom_site_label_1 
_geom_bond_atom_site_label_2 
_geom_bond_distance 
_geom_bond_site_symmetry_2 
_ccdc_geom_bond_type 
N1            N2   1.321       .  A
N1            C5   1.344       .  A
N1           Cu9   2.074       .  S
N2            C3   1.343       .  A
N2           Cu8   2.073       .  S
C3            C4   1.388       .  A
C3            H6   1.081       .  S
C4            C5   1.388       .  A
C4          C783   1.486       .  S
C5            H7   1.081       .  S
Cu8          N11   2.073       .  S
Cu9          N19   2.074       .  S
Cu10         N12   2.062       .  S
Cu10         N18   2.062       .  S
N11          N12   1.320       .  A
N11          C15   1.345       .  A
N12          C13   1.342       .  A
C13          C14   1.387       .  A
C13          H16   1.081       .  S
C14          C15   1.389       .  A
C14         C761   1.485       .  S
C15          H17   1.081       .  S
N18          N19   1.320       .  A
N18          C22   1.342       .  A
N19          C20   1.345       .  A
C20          C21   1.389       .  A
C20          H23   1.081       .  S
C21          C22   1.386       .  A
C21         C739   1.484       .  S
C22          H24   1.081       .  S
O25         Cu33   2.005       .  S
O25          C35   1.278       .  A
O26         Cu33   2.006   1_455  S
O26          C36   1.278       .  A
O27         Cu33   2.016   1_455  S
O27          C37   1.279       .  A
O28         Cu33   2.011       .  S
O28          C38   1.279       .  A
O29         Cu34   2.009       .  S
O29          C38   1.278       .  A
O30         Cu34   2.006   1_455  S
O30          C37   1.278       .  A
O31         Cu34   2.006   1_455  S
O31          C36   1.278       .  A
O32         Cu34   2.003       .  S
O32          C35   1.278       .  A
Cu33        Cu34   2.371       .  S
C35         C717   1.477       .  S
C36         C794   1.479       .  S
C37         C673   1.482       .  S
C38         C695   1.481       .  S
N39          N40   1.320       .  A
N39          C43   1.343       .  A
N39         Cu47   2.068       .  S
N40          C41   1.343       .  A
N40         Cu46   2.066       .  S
C41          C42   1.387       .  A
C41          H44   1.081       .  S
C42          C43   1.387       .  A
C42         C629   1.483       .  S
C43          H45   1.081       .  S
Cu46         N49   2.066       .  S
Cu47         N57   2.068       .  S
Cu48         N50   2.066       .  S
Cu48         N56   2.066       .  S
N49          N50   1.320       .  A
N49          C53   1.342       .  A
N50          C51   1.344       .  A
C51          C52   1.387       .  A
C51          H54   1.081       .  S
C52          C53   1.387       .  A
C52         C662   1.482       .  S
C53          H55   1.081       .  S
N56          N57   1.320       .  A
N56          C60   1.342       .  A
N57          C58   1.343       .  A
C58          C59   1.388       .  A
C58          H61   1.081       .  S
C59          C60   1.387       .  A
C59         C728   1.483       .  S
C60          H62   1.081       .  S
O63         Cu71   2.005   1_565  S
O63          C73   1.278       .  A
O64         Cu71   2.005       .  S
O64          C74   1.278       .  A
O65         Cu71   2.006       .  S
O65          C75   1.278       .  A
O66         Cu71   2.008   1_565  S
O66          C76   1.278       .  A
O67         Cu72   2.008   1_565  S
O67          C76   1.278       .  A
O68         Cu72   2.010       .  S
O68          C75   1.278       .  A
O69         Cu72   2.010       .  S
O69          C74   1.278       .  A
O70         Cu72   2.008   1_565  S
O70          C73   1.278       .  A
Cu71        Cu72   2.371       .  S
C73         C563   1.480       .  S
C74         C596   1.479       .  S
C75         C772   1.480       .  S
C76         C618   1.481       .  S
O77         Cu85   2.004       .  S
O77          C87   1.278       .  A
O78         Cu85   2.001   1_565  S
O78          C88   1.278       .  A
O79         Cu85   2.000   1_565  S
O79          C89   1.277       .  A
O80         Cu85   2.003       .  S
O80          C90   1.278       .  A
O81         Cu86   2.010       .  S
O81          C90   1.279       .  A
O82         Cu86   2.009   1_565  S
O82          C89   1.278       .  A
O83         Cu86   2.007   1_565  S
O83          C88   1.278       .  A
O84         Cu86   2.008       .  S
O84          C87   1.278       .  A
Cu85        Cu86   2.371       .  S
C87         C508   1.479       .  S
C88         C519   1.478       .  S
C89         C651   1.478       .  S
C90         C541   1.480       .  S
N91          N92   1.320       .  A
N91          C95   1.343       .  A
N91         Cu99   2.068       .  S
N92          C93   1.344       .  A
N92         Cu98   2.072       .  S
C93          C94   1.389       .  A
C93          H96   1.081       .  S
C94          C95   1.388       .  A
C94         C475   1.486       .  S
C95          H97   1.081       .  S
Cu98        N101   2.073       .  S
Cu99        N109   2.069       .  S
Cu100       N102   2.077       .  S
Cu100       N108   2.077       .  S
N101        N102   1.321       .  A
N101        C105   1.344       .  A
N102        C103   1.345       .  A
C103        C104   1.388       .  A
C103        H106   1.081       .  S
C104        C105   1.387       .  A
C104        C464   1.485       .  S
C105        H107   1.081       .  S
N108        N109   1.320       .  A
N108        C112   1.345       .  A
N109        C110   1.343       .  A
C110        C111   1.388       .  A
C110        H113   1.081       .  S
C111        C112   1.390       .  A
C111        C607   1.487       .  S
C112        H114   1.081       .  S
O115       Cu123   2.009       .  S
O115        C125   1.278       .  A
O116       Cu123   2.008   1_455  S
O116        C126   1.278       .  A
O117       Cu123   2.003       .  S
O117        C127   1.278       .  A
O118       Cu123   2.004   1_455  S
O118        C128   1.278       .  A
O119       Cu124   1.998   1_455  S
O119        C128   1.277       .  A
O120       Cu124   1.999       .  S
O120        C127   1.277       .  A
O121       Cu124   2.005   1_455  S
O121        C126   1.278       .  A
O122       Cu124   2.007       .  S
O122        C125   1.278       .  A
Cu123      Cu124   2.372       .  S
C125        C431   1.480       .  S
C126        C486   1.480       .  S
C127        C409   1.475       .  S
C128        C387   1.475       .  S
N129        N130   1.321       .  A
N129        C133   1.345       .  A
N129       Cu137   2.074       .  S
N130        C131   1.344       .  A
N130       Cu136   2.075       .  S
C131        C132   1.388       .  A
C131        H134   1.081       .  S
C132        C133   1.388       .  A
C132        C552   1.485       .  S
C133        H135   1.081       .  S
Cu136       N139   2.074       .  S
Cu137       N147   2.074       .  S
Cu138       N140   2.067       .  S
Cu138       N146   2.068       .  S
N139        N140   1.320       .  A
N139        C143   1.345       .  A
N140        C141   1.343       .  A
C141        C142   1.387       .  A
C141        H144   1.081       .  S
C142        C143   1.389       .  A
C142        C365   1.485       .  S
C143        H145   1.081       .  S
N146        N147   1.320       .  A
N146        C150   1.343       .  A
N147        C148   1.345       .  A
C148        C149   1.389       .  A
C148        H151   1.081       .  S
C149        C150   1.387       .  A
C149        C442   1.486       .  S
C150        H152   1.081       .  S
O153       Cu161   2.007   1_556  S
O153        C163   1.278       .  A
O154       Cu161   2.010       .  S
O154        C164   1.278       .  A
O155       Cu161   2.012   1_556  S
O155        C165   1.279       .  A
O156       Cu161   2.015       .  S
O156        C166   1.279       .  A
O157       Cu162   1.998   1_554  S
O157        C166   1.277       .  A
O158       Cu162   2.005       .  S
O158        C165   1.278       .  A
O159       Cu162   2.011   1_554  S
O159        C164   1.278       .  A
O160       Cu162   2.013       .  S
O160        C163   1.279       .  A
Cu161      Cu162   2.371   1_554  S
C163        C332   1.481       .  S
C164        C343   1.481       .  S
C165        C453   1.481       .  S
C166        C640   1.478       .  S
O167       Cu175   2.004   1_556  S
O167        C177   1.278       .  A
O168       Cu175   2.004       .  S
O168        C178   1.278       .  A
O169       Cu175   2.007   1_556  S
O169        C179   1.278       .  A
O170       Cu175   2.006       .  S
O170        C180   1.278       .  A
O171       Cu176   2.005       .  S
O171        C180   1.278       .  A
O172       Cu176   2.008   1_556  S
O172        C179   1.278       .  A
O173       Cu176   2.006       .  S
O173        C178   1.278       .  A
O174       Cu176   2.005   1_556  S
O174        C177   1.278       .  A
Cu175      Cu176   2.372       .  S
C177        C277   1.478       .  S
C178        C299   1.478       .  S
C179        C376   1.480       .  S
C180        C750   1.478       .  S
N181        N182   1.321       .  A
N181        C185   1.343       .  A
N181       Cu189   2.067       .  S
N182        C183   1.344       .  A
N182       Cu188   2.073       .  S
C183        C184   1.388       .  A
C183        H186   1.081       .  S
C184        C185   1.386       .  A
C184        C321   1.483       .  S
C185        H187   1.081       .  S
Cu188       N191   2.073       .  S
Cu189       N199   2.067       .  S
Cu190       N192   2.067       .  S
Cu190       N198   2.067       .  S
N191        N192   1.321       .  A
N191        C195   1.344       .  A
N192        C193   1.343       .  A
C193        C194   1.387       .  A
C193        H196   1.081       .  S
C194        C195   1.388       .  A
C194        C530   1.485       .  S
C195        H197   1.081       .  S
N198        N199   1.320       .  A
N198        C202   1.343       .  A
N199        C200   1.343       .  A
C200        C201   1.386       .  A
C200        H203   1.081       .  S
C201        C202   1.386       .  A
C201        C420   1.480       .  S
C202        H204   1.081       .  S
N205        N206   1.320       .  A
N205        C209   1.344       .  A
N205       Cu213   2.071       .  S
N206        C207   1.344       .  A
N206       Cu212   2.069       .  S
C207        C208   1.388       .  A
C207        H210   1.081       .  S
C208        C209   1.388       .  A
C208        C310   1.486       .  S
C209        H211   1.081       .  S
Cu212       N215   2.070       .  S
Cu213       N223   2.072       .  S
Cu214       N216   2.076       .  S
Cu214       N222   2.076       .  S
N215        N216   1.321       .  A
N215        C219   1.343       .  A
N216        C217   1.344       .  A
C217        C218   1.389       .  A
C217        H220   1.081       .  S
C218        C219   1.388       .  A
C218        C497   1.487       .  S
C219        H221   1.081       .  S
N222        N223   1.321       .  A
N222        C226   1.345       .  A
N223        C224   1.344       .  A
C224        C225   1.388       .  A
C224        H227   1.081       .  S
C225        C226   1.389       .  A
C225        C706   1.487       .  S
C226        H228   1.081       .  S
N229        N230   1.320       .  A
N229        C233   1.342       .  A
N229       Cu237   2.064       .  S
N230        C231   1.343       .  A
N230       Cu236   2.070       .  S
C231        C232   1.388       .  A
C231        H234   1.081       .  S
C232        C233   1.387       .  A
C232        C288   1.483       .  S
C233        H235   1.081       .  S
Cu236       N239   2.070       .  S
Cu237       N247   2.064       .  S
Cu238       N240   2.065       .  S
Cu238       N246   2.064       .  S
N239        N240   1.321       .  A
N239        C243   1.343       .  A
N240        C241   1.343       .  A
C241        C242   1.386       .  A
C241        H244   1.081       .  S
C242        C243   1.387       .  A
C242        C585   1.481       .  S
C243        H245   1.081       .  S
N246        N247   1.320       .  A
N246        C250   1.342       .  A
N247        C248   1.342       .  A
C248        C249   1.387       .  A
C248        H251   1.081       .  S
C249        C250   1.387       .  A
C249        C398   1.482       .  S
C250        H252   1.081       .  S
N253        N254   1.320       .  A
N253        C257   1.344       .  A
N253       Cu261   2.072       .  S
N254        C255   1.344       .  A
N254       Cu260   2.072       .  S
C255        C256   1.388       .  A
C255        H258   1.081       .  S
C256        C257   1.388       .  A
C256        C574   1.486       .  S
C257        H259   1.081       .  S
Cu260       N263   2.072       .  S
Cu261       N271   2.072       .  S
Cu262       N264   2.078       .  S
Cu262       N270   2.078       .  S
N263        N264   1.321       .  A
N263        C267   1.344       .  A
N264        C265   1.345       .  A
C265        C266   1.389       .  A
C265        H268   1.081       .  S
C266        C267   1.388       .  A
C266        C354   1.487       .  S
C267        H269   1.081       .  S
N270        N271   1.321       .  A
N270        C274   1.345       .  A
N271        C272   1.344       .  A
C272        C273   1.388       .  A
C272        H275   1.081       .  S
C273        C274   1.389       .  A
C273        C684   1.487       .  S
C274        H276   1.081       .  S
C277        C278   1.407       .  A
C277        C282   1.407       .  A
C278        C279   1.397       .  A
C278        H291   1.083       .  S
C279        C280   1.399       .  A
C279        H292   1.084       .  S
C280        C281   1.399       .  A
C280        C283   1.436       .  S
C281        C282   1.397       .  A
C281        H293   1.084       .  S
C282        H294   1.083       .  S
C283        C284   1.203       .  T
C284        C285   1.435       .  S
C285        C286   1.397       .  A
C285        C290   1.398       .  A
C286        C287   1.397       .  A
C286        H295   1.084       .  S
C287        C288   1.408       .  A
C287        H296   1.081       .  S
C288        C289   1.408       .  A
C289        C290   1.397       .  A
C289        H297   1.081       .  S
C290        H298   1.084       .  S
C299        C300   1.407       .  A
C299        C304   1.407       .  A
C300        C301   1.398       .  A
C300        H313   1.083       .  S
C301        C302   1.399       .  A
C301        H314   1.083       .  S
C302        C303   1.399       .  A
C302        C305   1.437       .  S
C303        C304   1.397       .  A
C303        H315   1.083       .  S
C304        H316   1.083       .  S
C305        C306   1.205       .  T
C306        C307   1.438       .  S
C307        C308   1.398       .  A
C307        C312   1.398       .  A
C308        C309   1.398       .  A
C308        H317   1.084       .  S
C309        C310   1.409       .  A
C309        H318   1.081       .  S
C310        C311   1.408       .  A
C311        C312   1.398       .  A
C311        H319   1.081       .  S
C312        H320   1.084       .  S
C321        C322   1.407       .  A
C321        C326   1.408       .  A
C322        C323   1.398       .  A
C322        H335   1.082       .  S
C323        C324   1.399       .  A
C323        H336   1.084       .  S
C324        C325   1.399       .  A
C324        C327   1.439       .  S
C325        C326   1.398       .  A
C325        H337   1.084       .  S
C326        H338   1.081       .  S
C327        C328   1.206       .  T
C328        C329   1.439       .  S
C329        C330   1.399       .  A
C329        C334   1.399       .  A
C330        C331   1.399       .  A
C330        H339   1.083       .  S
C331        C332   1.408       .  A
C331        H340   1.083       .  S
C332        C333   1.407       .  A
C333        C334   1.398       .  A
C333        H341   1.083       .  S
C334        H342   1.083       .  S
C343        C344   1.407       .  A
C343        C348   1.407       .  A
C344        C345   1.400       .  A
C344        H357   1.083       .  S
C345        C346   1.400       .  A
C345        H358   1.083       .  S
C346        C347   1.399       .  A
C346        C349   1.441       .  S
C347        C348   1.398       .  A
C347        H359   1.083       .  S
C348        H360   1.083       .  S
C349        C350   1.207       .  T
C350        C351   1.441       .  S
C351        C352   1.399       .  A
C351        C356   1.399       .  A
C352        C353   1.399       .  A
C352        H361   1.084       .  S
C353        C354   1.409       .  A
C353        H362   1.081       .  S
C354        C355   1.408       .  A
C355        C356   1.399       .  A
C355        H363   1.081       .  S
C356        H364   1.084       .  S
C365        C366   1.409       .  A
C365        C370   1.408       .  A
C366        C367   1.398       .  A
C366        H379   1.081       .  S
C367        C368   1.398       .  A
C367        H380   1.084       .  S
C368        C369   1.399       .  A
C368        C371   1.439       .  S
C369        C370   1.398       .  A
C369        H381   1.084       .  S
C370        H382   1.081       .  S
C371        C372   1.205       .  T
C372        C373   1.439       .  S
C373        C374   1.399       .  A
C373        C378   1.399       .  A
C374        C375   1.398       .  A
C374        H383   1.083       .  S
C375        C376   1.407       .  A
C375        H384   1.083       .  S
C376        C377   1.407       .  A
C377        C378   1.398       .  A
C377        H385   1.083       .  S
C378        H386   1.083       .  S
C387        C388   1.407       .  A
C387        C392   1.407       .  A
C388        C389   1.395       .  A
C388        H401   1.083       .  S
C389        C390   1.398       .  A
C389        H402   1.084       .  S
C390        C391   1.399       .  A
C390        C393   1.433       .  S
C391        C392   1.397       .  A
C391        H403   1.084       .  S
C392        H404   1.083       .  S
C393        C394   1.202       .  T
C394        C395   1.433       .  S
C395        C396   1.397       .  A
C395        C400   1.397       .  A
C396        C397   1.396       .  A
C396        H405   1.084       .  S
C397        C398   1.408       .  A
C397        H406   1.081       .  S
C398        C399   1.408       .  A
C399        C400   1.395       .  A
C399        H407   1.081       .  S
C400        H408   1.084       .  S
C409        C410   1.406       .  A
C409        C414   1.406       .  A
C410        C411   1.396       .  A
C410        H423   1.083       .  S
C411        C412   1.398       .  A
C411        H424   1.084       .  S
C412        C413   1.399       .  A
C412        C415   1.434       .  S
C413        C414   1.396       .  A
C413        H425   1.083       .  S
C414        H426   1.083       .  S
C415        C416   1.203       .  T
C416        C417   1.435       .  S
C417        C418   1.398       .  A
C417        C422   1.398       .  A
C418        C419   1.397       .  A
C418        H427   1.084       .  S
C419        C420   1.407       .  A
C419        H428   1.082       .  S
C420        C421   1.407       .  A
C421        C422   1.396       .  A
C421        H429   1.082       .  S
C422        H430   1.084       .  S
C431        C432   1.407       .  A
C431        C436   1.408       .  A
C432        C433   1.397       .  A
C432        H445   1.083       .  S
C433        C434   1.399       .  A
C433        H446   1.084       .  S
C434        C435   1.400       .  A
C434        C437   1.439       .  S
C435        C436   1.399       .  A
C435        H447   1.083       .  S
C436        H448   1.083       .  S
C437        C438   1.205       .  T
C438        C439   1.439       .  S
C439        C440   1.398       .  A
C439        C444   1.399       .  A
C440        C441   1.397       .  A
C440        H449   1.084       .  S
C441        C442   1.409       .  A
C441        H450   1.081       .  S
C442        C443   1.408       .  A
C443        C444   1.398       .  A
C443        H451   1.081       .  S
C444        H452   1.084       .  S
C453        C454   1.407       .  A
C453        C458   1.408       .  A
C454        C455   1.399       .  A
C454        H467   1.083       .  S
C455        C456   1.400       .  A
C455        H468   1.083       .  S
C456        C457   1.399       .  A
C456        C459   1.440       .  S
C457        C458   1.398       .  A
C457        H469   1.084       .  S
C458        H470   1.083       .  S
C459        C460   1.206       .  T
C460        C461   1.440       .  S
C461        C462   1.399       .  A
C461        C466   1.399       .  A
C462        C463   1.399       .  A
C462        H471   1.084       .  S
C463        C464   1.408       .  A
C463        H472   1.082       .  S
C464        C465   1.408       .  A
C465        C466   1.398       .  A
C465        H473   1.081       .  S
C466        H474   1.084       .  S
C475        C476   1.408       .  A
C475        C480   1.409       .  A
C476        C477   1.397       .  A
C476        H489   1.081       .  S
C477        C478   1.398       .  A
C477        H490   1.084       .  S
C478        C479   1.398       .  A
C478        C481   1.438       .  S
C479        C480   1.398       .  A
C479        H491   1.084       .  S
C480        H492   1.081       .  S
C481        C482   1.205       .  T
C482        C483   1.438       .  S
C483        C484   1.399       .  A
C483        C488   1.399       .  A
C484        C485   1.397       .  A
C484        H493   1.084       .  S
C485        C486   1.407       .  A
C485        H494   1.083       .  S
C486        C487   1.407       .  A
C487        C488   1.398       .  A
C487        H495   1.083       .  S
C488        H496   1.083       .  S
C497        C498   1.409       .  A
C497        C502   1.409       .  A
C498        C499   1.398       .  A
C498        H511   1.081       .  S
C499        C500   1.398       .  A
C499        H512   1.084       .  S
C500        C501   1.398       .  A
C500        C503   1.438       .  S
C501        C502   1.398       .  A
C501        H513   1.084       .  S
C502        H514   1.081       .  S
C503        C504   1.205       .  T
C504        C505   1.438       .  S
C505        C506   1.399       .  A
C505        C510   1.399       .  A
C506        C507   1.398       .  A
C506        H515   1.084       .  S
C507        C508   1.407       .  A
C507        H516   1.083       .  S
C508        C509   1.407       .  A
C509        C510   1.398       .  A
C509        H517   1.083       .  S
C510        H518   1.083       .  S
C519        C520   1.407       .  A
C519        C524   1.407       .  A
C520        C521   1.398       .  A
C520        H533   1.083       .  S
C521        C522   1.399       .  A
C521        H534   1.084       .  S
C522        C523   1.398       .  A
C522        C525   1.436       .  S
C523        C524   1.396       .  A
C523        H535   1.084       .  S
C524        H536   1.083       .  S
C525        C526   1.204       .  T
C526        C527   1.436       .  S
C527        C528   1.398       .  A
C527        C532   1.398       .  A
C528        C529   1.397       .  A
C528        H537   1.084       .  S
C529        C530   1.409       .  A
C529        H538   1.081       .  S
C530        C531   1.408       .  A
C531        C532   1.397       .  A
C531        H539   1.081       .  S
C532        H540   1.084       .  S
C541        C542   1.408       .  A
C541        C546   1.407       .  A
C542        C543   1.398       .  A
C542        H555   1.083       .  S
C543        C544   1.399       .  A
C543        H556   1.083       .  S
C544        C545   1.399       .  A
C544        C547   1.438       .  S
C545        C546   1.398       .  A
C545        H557   1.083       .  S
C546        H558   1.083       .  S
C547        C548   1.205       .  T
C548        C549   1.439       .  S
C549        C550   1.398       .  A
C549        C554   1.399       .  A
C550        C551   1.398       .  A
C550        H559   1.084       .  S
C551        C552   1.408       .  A
C551        H560   1.081       .  S
C552        C553   1.408       .  A
C553        C554   1.398       .  A
C553        H561   1.081       .  S
C554        H562   1.084       .  S
C563        C564   1.407       .  A
C563        C568   1.407       .  A
C564        C565   1.398       .  A
C564        H577   1.083       .  S
C565        C566   1.399       .  A
C565        H578   1.084       .  S
C566        C567   1.399       .  A
C566        C569   1.438       .  S
C567        C568   1.398       .  A
C567        H579   1.083       .  S
C568        H580   1.083       .  S
C569        C570   1.205       .  T
C570        C571   1.438       .  S
C571        C572   1.398       .  A
C571        C576   1.398       .  A
C572        C573   1.398       .  A
C572        H581   1.084       .  S
C573        C574   1.409       .  A
C573        H582   1.081       .  S
C574        C575   1.409       .  A
C575        C576   1.398       .  A
C575        H583   1.081       .  S
C576        H584   1.084       .  S
C585        C586   1.408       .  A
C585        C590   1.407       .  A
C586        C587   1.398       .  A
C586        H599   1.082       .  S
C587        C588   1.399       .  A
C587        H600   1.084       .  S
C588        C589   1.398       .  A
C588        C591   1.437       .  S
C589        C590   1.397       .  A
C589        H601   1.084       .  S
C590        H602   1.082       .  S
C591        C592   1.205       .  T
C592        C593   1.437       .  S
C593        C594   1.400       .  A
C593        C598   1.399       .  A
C594        C595   1.398       .  A
C594        H603   1.084       .  S
C595        C596   1.407       .  A
C595        H604   1.083       .  S
C596        C597   1.407       .  A
C597        C598   1.397       .  A
C597        H605   1.083       .  S
C598        H606   1.083       .  S
C607        C608   1.408       .  A
C607        C612   1.409       .  A
C608        C609   1.399       .  A
C608        H621   1.081       .  S
C609        C610   1.399       .  A
C609        H622   1.084       .  S
C610        C611   1.398       .  A
C610        C613   1.439       .  S
C611        C612   1.398       .  A
C611        H623   1.084       .  S
C612        H624   1.081       .  S
C613        C614   1.206       .  T
C614        C615   1.439       .  S
C615        C616   1.399       .  A
C615        C620   1.399       .  A
C616        C617   1.398       .  A
C616        H625   1.083       .  S
C617        C618   1.407       .  A
C617        H626   1.083       .  S
C618        C619   1.407       .  A
C619        C620   1.398       .  A
C619        H627   1.083       .  S
C620        H628   1.083       .  S
C629        C630   1.407       .  A
C629        C634   1.408       .  A
C630        C631   1.396       .  A
C630        H643   1.081       .  S
C631        C632   1.398       .  A
C631        H644   1.084       .  S
C632        C633   1.399       .  A
C632        C635   1.437       .  S
C633        C634   1.398       .  A
C633        H645   1.084       .  S
C634        H646   1.081       .  S
C635        C636   1.204       .  T
C636        C637   1.437       .  S
C637        C638   1.400       .  A
C637        C642   1.398       .  A
C638        C639   1.398       .  A
C638        H647   1.084       .  S
C639        C640   1.406       .  A
C639        H648   1.083       .  S
C640        C641   1.408       .  A
C641        C642   1.397       .  A
C641        H649   1.083       .  S
C642        H650   1.084       .  S
C651        C652   1.407       .  A
C651        C656   1.407       .  A
C652        C653   1.395       .  A
C652        H665   1.083       .  S
C653        C654   1.398       .  A
C653        H666   1.084       .  S
C654        C655   1.400       .  A
C654        C657   1.435       .  S
C655        C656   1.398       .  A
C655        H667   1.084       .  S
C656        H668   1.083       .  S
C657        C658   1.203       .  T
C658        C659   1.435       .  S
C659        C660   1.397       .  A
C659        C664   1.398       .  A
C660        C661   1.396       .  A
C660        H669   1.084       .  S
C661        C662   1.408       .  A
C661        H670   1.081       .  S
C662        C663   1.408       .  A
C663        C664   1.397       .  A
C663        H671   1.081       .  S
C664        H672   1.084       .  S
C673        C674   1.408       .  A
C673        C678   1.407       .  A
C674        C675   1.399       .  A
C674        H687   1.083       .  S
C675        C676   1.399       .  A
C675        H688   1.083       .  S
C676        C677   1.400       .  A
C676        C679   1.441       .  S
C677        C678   1.399       .  A
C677        H689   1.083       .  S
C678        H690   1.083       .  S
C679        C680   1.207       .  T
C680        C681   1.441       .  S
C681        C682   1.399       .  A
C681        C686   1.399       .  A
C682        C683   1.399       .  A
C682        H691   1.084       .  S
C683        C684   1.408       .  A
C683        H692   1.081       .  S
C684        C685   1.408       .  A
C685        C686   1.399       .  A
C685        H693   1.081       .  S
C686        H694   1.084       .  S
C695        C696   1.407       .  A
C695        C700   1.407       .  A
C696        C697   1.399       .  A
C696        H709   1.083       .  S
C697        C698   1.400       .  A
C697        H710   1.083       .  S
C698        C699   1.400       .  A
C698        C701   1.440       .  S
C699        C700   1.399       .  A
C699        H711   1.083       .  S
C700        H712   1.083       .  S
C701        C702   1.206       .  T
C702        C703   1.440       .  S
C703        C704   1.399       .  A
C703        C708   1.399       .  A
C704        C705   1.399       .  A
C704        H713   1.084       .  S
C705        C706   1.408       .  A
C705        H714   1.081       .  S
C706        C707   1.409       .  A
C707        C708   1.399       .  A
C707        H715   1.081       .  S
C708        H716   1.084       .  S
C717        C718   1.407       .  A
C717        C722   1.407       .  A
C718        C719   1.397       .  A
C718        H731   1.083       .  S
C719        C720   1.399       .  A
C719        H732   1.084       .  S
C720        C721   1.399       .  A
C720        C723   1.435       .  S
C721        C722   1.397       .  A
C721        H733   1.084       .  S
C722        H734   1.083       .  S
C723        C724   1.203       .  T
C724        C725   1.435       .  S
C725        C726   1.398       .  A
C725        C730   1.397       .  A
C726        C727   1.397       .  A
C726        H735   1.084       .  S
C727        C728   1.408       .  A
C727        H736   1.081       .  S
C728        C729   1.408       .  A
C729        C730   1.396       .  A
C729        H737   1.081       .  S
C730        H738   1.084       .  S
C739        C740   1.409       .  A
C739        C744   1.407       .  A
C740        C741   1.397       .  A
C740        H753   1.081       .  S
C741        C742   1.398       .  A
C741        H754   1.084       .  S
C742        C743   1.398       .  A
C742        C745   1.436       .  S
C743        C744   1.397       .  A
C743        H755   1.084       .  S
C744        H756   1.081       .  S
C745        C746   1.204       .  T
C746        C747   1.436       .  S
C747        C748   1.399       .  A
C747        C752   1.399       .  A
C748        C749   1.398       .  A
C748        H757   1.083       .  S
C749        C750   1.407       .  A
C749        H758   1.083       .  S
C750        C751   1.407       .  A
C751        C752   1.397       .  A
C751        H759   1.083       .  S
C752        H760   1.084       .  S
C761        C762   1.408       .  A
C761        C766   1.409       .  A
C762        C763   1.398       .  A
C762        H775   1.081       .  S
C763        C764   1.399       .  A
C763        H776   1.084       .  S
C764        C765   1.398       .  A
C764        C767   1.438       .  S
C765        C766   1.397       .  A
C765        H777   1.084       .  S
C766        H778   1.081       .  S
C767        C768   1.205       .  T
C768        C769   1.438       .  S
C769        C770   1.399       .  A
C769        C774   1.399       .  A
C770        C771   1.398       .  A
C770        H779   1.083       .  S
C771        C772   1.407       .  A
C771        H780   1.083       .  S
C772        C773   1.407       .  A
C773        C774   1.398       .  A
C773        H781   1.083       .  S
C774        H782   1.084       .  S
C783        C784   1.409       .  A
C783        C788   1.409       .  A
C784        C785   1.398       .  A
C784        H797   1.081       .  S
C785        C786   1.398       .  A
C785        H798   1.084       .  S
C786        C787   1.398       .  A
C786        C789   1.438       .  S
C787        C788   1.397       .  A
C787        H799   1.084       .  S
C788        H800   1.081       .  S
C789        C790   1.205       .  T
C790        C791   1.438       .  S
C791        C792   1.399       .  A
C791        C796   1.399       .  A
C792        C793   1.397       .  A
C792        H801   1.083       .  S
C793        C794   1.407       .  A
C793        H802   1.083       .  S
C794        C795   1.407       .  A
C795        C796   1.398       .  A
C795        H803   1.083       .  S
C796        H804   1.084       .  S
