geometry optimzed in LAMMPS
_audit_creation_date              2020-11-30 
_audit_creation_method            'lammps2cif' 
_symmetry_space_group_name_H-M    'P1' 
_symmetry_Int_Tables_number       1 
_symmetry_cell_setting            triclinic 
loop_ 
_symmetry_equiv_pos_as_xyz 
  x,y,z 
_cell_length_a                    28.90818443 
_cell_length_b                    28.999881247328478 
_cell_length_c                    40.80474762475995 
_cell_angle_alpha                 90.35996540328225 
_cell_angle_beta                  90.10742151699827 
_cell_angle_gamma                 119.78131737342038 
loop_ 
_atom_site_label 
_atom_site_type_symbol 
_atom_site_fract_x 
_atom_site_fract_y 
_atom_site_fract_z 
_atom_site_charge 
O1          O  0.47100377  0.37684362  0.31526061    -0.74100
O2          O  0.40920943  0.33174704  0.27588657    -0.53100
C3          C  0.42622130  0.33761426  0.30556547     0.79600
O4          O  0.50274030  0.58356764  0.33507359    -0.58700
O5          O  0.54778077  0.63667005  0.29375967    -0.51800
C6          C  0.54195622  0.62770368  0.32433471     0.71600
O7          O  0.36035616  0.41045595  0.31443505    -0.73300
O8          O  0.34108511  0.36206295  0.26750706    -0.53900
C9          C  0.33106656  0.36745943  0.29724642     0.77600
O10         O  0.61892719  0.52844562  0.32054496    -0.58500
O11         O  0.63496814  0.60736792  0.29929264    -0.51600
C12         C  0.64352477  0.57980768  0.32040872     0.74200
Zr13       Zr  0.54576112  0.45378988  0.28992939     2.54700
O14         O  0.57543808  0.42268506  0.33652582    -0.79000
O15         O  0.59619215  0.41352056  0.26831073    -0.92400
Zr16       Zr  0.43754945  0.50222319  0.30262864     2.64700
O17         O  0.41105071  0.48715117  0.35997265    -0.97400
O18         O  0.37756657  0.53850273  0.30016042    -0.79400
O19         O  0.46163976  0.44169980  0.28635924    -0.82800
O20         O  0.52870189  0.52340729  0.30253266    -2.17500
O21         O  0.63452706  0.57094439  0.18418171    -0.66200
O22         O  0.64683027  0.62525971  0.22779343    -0.50800
C23         C  0.66091004  0.61625566  0.20001406     0.72600
O24         O  0.38053075  0.46115584  0.17166089    -0.59100
O25         O  0.35597409  0.38256468  0.19646703    -0.51100
C26         C  0.35202179  0.41031398  0.17336465     0.74400
O27         O  0.51413420  0.62131077  0.18674594    -0.70500
O28         O  0.58080897  0.65766078  0.22465675    -0.49200
C29         C  0.56091017  0.65757156  0.19649180     0.75800
O30         O  0.47828141  0.40652341  0.16034568    -0.65800
O31         O  0.43385876  0.34736041  0.19944282    -0.53000
C32         C  0.44014686  0.36039515  0.16945758     0.74100
Zr33       Zr  0.55131739  0.48021150  0.19382063     2.77500
O34         O  0.57688788  0.48872812  0.13626598    -0.96600
O35         O  0.60153560  0.43319678  0.19476944    -0.77400
Zr36       Zr  0.44619568  0.53275489  0.20632073     2.70100
O37         O  0.41239084  0.55796171  0.15891909    -0.78600
O38         O  0.39094551  0.56575903  0.23020410    -0.97700
Zr39       Zr  0.42265612  0.40213116  0.23858971     2.21500
Zr40       Zr  0.56723926  0.58328377  0.25776775     2.11100
O41         O  0.53556284  0.55081324  0.20371322    -2.46400
O42         O  0.46635593  0.46608423  0.20081493    -0.78400
O43         O  0.58886999  0.51506931  0.24686012    -0.70600
O44         O  0.40111330  0.47040280  0.24896594    -2.31600
O45         O  0.51187683  0.41697933  0.23707727    -2.27800
O46         O  0.47779582  0.56656023  0.25982926    -0.72400
H47         H  0.54330755  0.53635526  0.32398325     0.79600
H48         H  0.36306474  0.45719569  0.24813267     0.80700
H49         H  0.55476721  0.57296925  0.18560794     0.82900
H50         H  0.51342924  0.38467805  0.23327151     0.80500
H51         H  0.34146193  0.50687679  0.29896509     0.43600
H52         H  0.40104061  0.59914078  0.21832951     0.42500
H53         H  0.43508460  0.55929131  0.14041890     0.42200
H54         H  0.57361203  0.51908562  0.12818349     0.40100
H55         H  0.63704051  0.45957121  0.20342054     0.43300
H56         H  0.57808821  0.37692291  0.27705403     0.38100
H57         H  0.56133742  0.43190716  0.35603650     0.44200
H58         H  0.44177968  0.48850865  0.37159244     0.40600
H59         H  0.61573042  0.50170819  0.13646882     0.45500
H60         H  0.63083934  0.43180838  0.28003192     0.44200
H61         H  0.41086277  0.51976294  0.36716794     0.44400
H62         H  0.35443563  0.54063427  0.22237882     0.44700
O63         O  0.04883692  0.41268336  0.31509953    -0.74100
O64         O  0.02159845  0.36563966  0.26769442    -0.53100
C65         C  0.03548679  0.36994439  0.29765738     0.79600
O66         O  0.91076487  0.53222598  0.32114967    -0.58700
O67         O  0.97389225  0.61087872  0.30004616    -0.51800
C68         C  0.93748045  0.58339685  0.32089148     0.71600
O69         O  0.90464589  0.37889342  0.31506158    -0.73300
O70         O  0.92240458  0.33463523  0.27574106    -0.53900
C71         C  0.91007563  0.33968273  0.30517347     0.77600
O72         O  0.08257636  0.58692817  0.33631212    -0.58500
O73         O  0.09103862  0.64082442  0.29531395    -0.51600
C74         C  0.08724876  0.63117698  0.32582735     0.74200
Zr75       Zr  0.06597745  0.50577210  0.30336954     2.54700
O76         O  0.07826634  0.49485246  0.36136411    -0.79000
O77         O  0.16170635  0.53871218  0.30248413    -0.92400
Zr78       Zr  0.90993387  0.45816688  0.29111592     2.64700
O79         O  0.85499928  0.42464468  0.34005117    -0.97400
O80         O  0.81882849  0.42167272  0.27102745    -0.79400
O81         O  0.98112380  0.44472734  0.28825267    -0.82800
O82         O  0.99655378  0.52775303  0.30388032    -2.17500
O83         O  0.10922953  0.62535791  0.18857074    -0.66200
O84         O  0.07931182  0.66242449  0.22614104    -0.50800
C85         C  0.09891229  0.66195855  0.19802495     0.72600
O86         O  0.92750107  0.41019383  0.16153976    -0.59100
O87         O  0.91354097  0.35159697  0.20093685    -0.51100
C88         C  0.91954250  0.36409436  0.17087778     0.74400
O89         O  0.93749492  0.57538450  0.18543802    -0.70500
O90         O  0.98228545  0.63067159  0.22812755    -0.49200
C91         C  0.95787714  0.62120390  0.20071321     0.75800
O92         O  0.07601135  0.46160091  0.17224270    -0.65800
O93         O  0.02542003  0.38436370  0.19910977    -0.53000
C94         C  0.05466169  0.41086737  0.17506689     0.74100
Zr95       Zr  0.08689787  0.53541056  0.20735375     2.77500
O96         O  0.14244011  0.55963326  0.15836344    -0.96600
O97         O  0.17588859  0.56204408  0.22808093    -0.77400
Zr98       Zr  0.93045063  0.48516251  0.19489649     2.70100
O99         O  0.92051788  0.50054898  0.13732376    -0.78600
O100        O  0.83346855  0.44103864  0.19442888    -0.97700
Zr101      Zr  0.97975386  0.40626149  0.23990464     2.21500
Zr102      Zr  0.01871062  0.58757140  0.25889608     2.11100
O103        O  0.01690809  0.55539843  0.20466141    -2.46400
O104        O  0.00030361  0.46946058  0.20147005    -0.78400
O105        O  0.08130160  0.56142556  0.25951538    -0.70600
O106        O  0.90590776  0.42173980  0.23815266    -2.31600
O107        O  0.07024565  0.47327382  0.24999889    -2.27800
O108        O  0.92873784  0.52006921  0.24811115    -0.72400
H109        H  0.99490254  0.54065133  0.32534717     0.79600
H110        H  0.87205796  0.39005741  0.23439808     0.80700
H111        H  0.02011958  0.57781448  0.18663325     0.82900
H112        H  0.09480249  0.45966392  0.24918132     0.80500
H113        H  0.80082850  0.38373989  0.27724133     0.43600
H114        H  0.82538019  0.47003019  0.19083668     0.42500
H115        H  0.95594509  0.52999984  0.13090592     0.42200
H116        H  0.12230857  0.56664440  0.14134943     0.40100
H117        H  0.19416685  0.60130838  0.22920572     0.43300
H118        H  0.16578576  0.51004619  0.31280989     0.38100
H119        H  0.04215317  0.47935751  0.37085087     0.44200
H120        H  0.87988758  0.44204398  0.35867272     0.40600
H121        H  0.17380979  0.59484020  0.16327774     0.45500
H122        H  0.17675468  0.56800595  0.31880651     0.44200
H123        H  0.83169447  0.44063424  0.33999603     0.44400
H124        H  0.82284644  0.42037857  0.17365145     0.44700
O125        O  0.37644364  0.90801623  0.32030393    -0.74100
O126        O  0.33375895  0.92736858  0.28133939    -0.53100
C127        C  0.33787632  0.91480808  0.31065729     0.79600
O128        O  0.60711793  0.06793999  0.33258280    -0.58700
O129        O  0.64357359  0.03381121  0.29751175    -0.51800
C130        C  0.64235795  0.05449652  0.32526902     0.71600
O131        O  0.44793632  0.05714221  0.33422558    -0.73300
O132        O  0.38091295  0.03194932  0.29717396    -0.53900
C133        C  0.40098869  0.04773054  0.32601594     0.77600
O134        O  0.52077339  0.89324397  0.31395088    -0.58500
O135        O  0.59167830  0.93128092  0.27970629    -0.51600
C136        C  0.56924686  0.90746865  0.30623769     0.74200
Zr137      Zr  0.44868197  0.90506321  0.29109798     2.54700
O138        O  0.42573810  0.85089164  0.34030775    -0.79000
O139        O  0.39436684  0.81473693  0.27018282    -0.92400
Zr140      Zr  0.52644603  0.06306047  0.30761170     2.64700
O141        O  0.53284844  0.08391129  0.36605659    -0.97400
O142        O  0.57019562  0.15949894  0.30462940    -0.79400
O143        O  0.45146074  0.98506852  0.29440989    -0.82800
O144        O  0.53041178  0.98434098  0.30082120    -2.17500
O145        O  0.53869210  0.92675414  0.17171761    -0.66200
O146        O  0.60867657  0.96218609  0.20737044    -0.50800
C147        C  0.58758412  0.94143796  0.17950743     0.72600
O148        O  0.46120396  0.08374633  0.18358548    -0.59100
O149        O  0.39461018  0.05723523  0.22055427    -0.51100
C150        C  0.41473897  0.07494363  0.19240527     0.74400
O151        O  0.62134243  0.09911765  0.18813497    -0.70500
O152        O  0.65669289  0.06434674  0.22328835    -0.49200
C153        C  0.65659234  0.08600278  0.19605482     0.75800
O154        O  0.38813969  0.93530786  0.16910858    -0.65800
O155        O  0.34432516  0.95711056  0.20669349    -0.53000
C156        C  0.34983388  0.94355489  0.17753183     0.74100
Zr157      Zr  0.46096508  0.92911056  0.19607495     2.77500
O158        O  0.44608972  0.90575848  0.13796719    -0.96600
O159        O  0.41136548  0.83272286  0.20070585    -0.77400
Zr160      Zr  0.53754507  0.08710154  0.21236054     2.70100
O161        O  0.56397672  0.14343188  0.16404408    -0.78600
O162        O  0.57435033  0.17674019  0.23461260    -0.97700
Zr163      Zr  0.40701670  0.99489988  0.25186559     2.21500
Zr164      Zr  0.58091590  0.99772889  0.25204221     2.11100
O165        O  0.54221839  0.00888378  0.20302555    -2.46400
O166        O  0.46177573  0.00610704  0.20949411    -0.78400
O167        O  0.50035828  0.91499237  0.24345348    -0.70600
O168        O  0.48694123  0.07796652  0.26046644    -2.31600
O169        O  0.40625380  0.91283653  0.24298568    -2.27800
O170        O  0.58048123  0.07929945  0.26034341    -0.72400
H171        H  0.54566255  0.98006711  0.32085863     0.79600
H172        H  0.47979350  0.10712040  0.26355792     0.80700
H173        H  0.56116476  0.01300451  0.18286441     0.82900
H174        H  0.37042711  0.88307639  0.23976564     0.80500
H175        H  0.54499765  0.16856730  0.31536954     0.43600
H176        H  0.61114312  0.19615243  0.22603391     0.42500
H177        H  0.55353991  0.11853572  0.14519408     0.42200
H178        H  0.47599975  0.93567529  0.12652215     0.40100
H179        H  0.37479827  0.82245961  0.19337307     0.43300
H180        H  0.35891339  0.80210794  0.28016522     0.38100
H181        H  0.43725252  0.87659608  0.35878076     0.44200
H182        H  0.53537925  0.05497196  0.37712525     0.40600
H183        H  0.45253022  0.87543764  0.13521726     0.45500
H184        H  0.40862521  0.79406081  0.28122895     0.44200
H185        H  0.56831780  0.11592989  0.36920813     0.44400
H186        H  0.55517036  0.19198382  0.22275558     0.44700
C187        C  0.05337924  0.11149810  0.36120376     0.04300
C188        C  0.10913828  0.13836338  0.35389491    -0.11900
C189        C  0.13445664  0.18972950  0.33986534     0.01800
C190        C  0.10432495  0.21308614  0.33180811    -0.10400
C191        C  0.05102118  0.19012545  0.33996195     0.04300
C192        C  0.02483320  0.13880773  0.35398173    -0.09800
H193        H  0.13356678  0.12206518  0.36236436     0.09900
H194        H  0.12400651  0.25241691  0.32096454     0.07400
H195        H  0.98426673  0.12286829  0.36248217     0.07200
C196        C  0.11224292  0.22905268  0.05393991     0.04300
C197        C  0.08207839  0.25262310  0.06354142    -0.11900
C198        C  0.10722720  0.30351603  0.07767447     0.01800
C199        C  0.16253272  0.33155417  0.08080171    -0.10400
C200        C  0.19234773  0.30670400  0.07454998     0.04300
C201        C  0.16758450  0.25611184  0.05972917    -0.09800
H202        H  0.03924830  0.23065521  0.06139085     0.09900
H203        H  0.18112352  0.36915664  0.09407402     0.07400
H204        H  0.19049396  0.23670897  0.05476513     0.07200
C205        C  0.08976141  0.86714681  0.06777818     0.04300
C206        C  0.14551187  0.90178420  0.07355369    -0.11900
C207        C  0.17588677  0.88452576  0.09097356     0.01800
C208        C  0.15142383  0.83304180  0.10213545    -0.10400
C209        C  0.09630948  0.80179499  0.10219117     0.04300
C210        C  0.06453929  0.81776874  0.08436489    -0.09800
H211        H  0.16535218  0.94246404  0.06512629     0.09900
H212        H  0.17508657  0.82010936  0.11598744     0.07400
H213        H  0.02162488  0.79297472  0.08383133     0.07200
C214        C  0.88812522  0.10155057  0.08299690     0.04300
C215        C  0.83416238  0.07547849  0.09234309    -0.11900
C216        C  0.80972314  0.10509989  0.10131349     0.01800
C217        C  0.83740029  0.16010230  0.09826296    -0.10400
C218        C  0.89229874  0.18738161  0.09364489     0.04300
C219        C  0.91807937  0.15785195  0.08599769    -0.09800
H220        H  0.81196945  0.03256968  0.09390330     0.09900
H221        H  0.81815991  0.18224328  0.10629486     0.07400
H222        H  0.96060756  0.17815662  0.08271455     0.07200
C223        C  0.90160689  0.12537010  0.43311792     0.04300
C224        C  0.92802203  0.17561823  0.41793705    -0.11900
C225        C  0.89732189  0.19507453  0.40262237     0.01800
C226        C  0.84194156  0.16665745  0.40435219    -0.10400
C227        C  0.81599415  0.11385841  0.41334547     0.04300
C228        C  0.84543822  0.09327152  0.42822210    -0.09800
H229        H  0.97111395  0.19816521  0.41710711     0.09900
H230        H  0.81916853  0.18210404  0.39200311     0.07400
H231        H  0.82451597  0.05175047  0.43498538     0.07200
C232        C  0.22066931  0.12661762  0.43594883     0.04300
C233        C  0.24430570  0.17652462  0.42010051    -0.11900
C234        C  0.29358631  0.19491496  0.40385382     0.01800
C235        C  0.31963275  0.16545845  0.40501721    -0.10400
C236        C  0.29277040  0.11305313  0.41482862     0.04300
C237        C  0.24396996  0.09381439  0.43089380    -0.09800
H238        H  0.22418838  0.19957295  0.41945907     0.09900
H239        H  0.35694224  0.17974537  0.39189396     0.07400
H240        H  0.22335984  0.05252046  0.43815317     0.07200
C241        C  0.09525751  0.88595789  0.41432566     0.04300
C242        C  0.06765387  0.82989153  0.40883710    -0.11900
C243        C  0.09687184  0.80322526  0.40214291     0.01800
C244        C  0.15216753  0.83304399  0.40089256    -0.10400
C245        C  0.17793146  0.88818236  0.40022261     0.04300
C246        C  0.15022374  0.91474714  0.40808654    -0.09800
H247        H  0.02474399  0.80765886  0.40984580     0.09900
H248        H  0.17437618  0.81344271  0.39372469     0.07400
H249        H  0.17114026  0.95782379  0.40840990     0.07200
C250        C  0.20208494  0.10389235  0.08387317     0.04300
C251        C  0.22894513  0.07680380  0.09331426    -0.11900
C252        C  0.28345183  0.10526156  0.10072793     0.01800
C253        C  0.31211303  0.15987632  0.09603495    -0.10400
C254        C  0.28568908  0.18857056  0.09174511     0.04300
C255        C  0.22991693  0.16030128  0.08551736    -0.09800
H256        H  0.20724166  0.03397176  0.09578440     0.09900
H257        H  0.35399246  0.18107806  0.10301261     0.07400
H258        H  0.20852127  0.18160614  0.08235974     0.07200
O259        O  0.06393159  0.13634716  0.06294076    -0.85300
O260        O  0.00841360  0.02424194  0.39117720    -0.85500
O261        O  0.13784222  0.12360914  0.45357443    -0.87200
O262        O  0.98112864  0.12244962  0.45168088    -0.85900
O263        O  0.89743551  0.06051730  0.46796318    -0.85500
O264        O  0.15937138  0.06184890  0.47101843    -0.86900
O265        O  0.05202369  0.10674230  0.41619831    -0.85400
O266        O  0.08323337  0.16799272  0.01006407    -0.85000
Zr267      Zr  0.04384417  0.09235243  0.47247960     2.84300
O268        O  0.96145024  0.02159095  0.45447084    -1.06900
O269        O  0.07311781  0.06419438  0.01745176    -1.07700
C270        C  0.08491965  0.17408064  0.04150806     1.07800
C271        C  0.03602498  0.07690917  0.39090248     1.07700
C272        C  0.16967020  0.10381408  0.45498654     1.10700
C273        C  0.92949323  0.10229495  0.45215643     1.08500
H274        H  0.07705944  0.02920025  0.43599207     0.34000
O275        O  0.05305040  0.02018616  0.45425069    -1.27900
H276        H  0.97975410  0.09581819  0.02103504     0.33700
O277        O  0.98372433  0.06542248  0.01608420    -1.29600
O278        O  0.92422003  0.85311805  0.43491619    -0.85300
O279        O  0.97713719  0.96438042  0.10667268    -0.86800
O280        O  0.09469896  0.94045823  0.45681227    -0.85400
O281        O  0.83813487  0.94247181  0.45543822    -0.85500
O282        O  0.88676285  0.04449735  0.04110042    -0.85200
O283        O  0.14764330  0.04727233  0.04210644    -0.85000
O284        O  0.00919064  0.86693674  0.04714636    -0.85400
O285        O  0.85387125  0.86902591  0.04810098    -0.84800
O286        O  0.09235316  0.92790899  0.02947651    -0.85900
O287        O  0.83035184  0.92919185  0.03028595    -0.85000
O288        O  0.02973527  0.91506107  0.41719129    -0.85400
O289        O  0.10751172  0.07348031  0.08086612    -0.85200
O290        O  0.95268665  0.07142467  0.08025879    -0.84800
O291        O  0.87763434  0.91586929  0.41652261    -0.85200
O292        O  0.90839585  0.82096005  0.48778708    -0.85500
O293        O  0.93845121  0.88173968  0.08173572    -0.86900
Zr294      Zr  0.97125722  0.95044689  0.43550900     2.83100
Zr295      Zr  0.01379337  0.03846517  0.06243678     2.83500
Zr296      Zr  0.08414514  0.99405398  0.99937351     2.84100
Zr297      Zr  0.90259046  0.99388552  0.99862253     2.83400
Zr298      Zr  0.94552136  0.89627038  0.02573036     2.84200
O299        O  0.93361127  0.96701487  0.04316687    -1.07400
O300        O  0.00354211  0.92388990  0.48101784    -1.06900
C301        C  0.90565107  0.81532505  0.45627436     1.07700
C302        C  0.95220012  0.91167819  0.10695106     1.10400
C303        C  0.07095097  0.91531032  0.43019912     1.07900
C304        C  0.83672231  0.91673440  0.42907073     1.08300
C305        C  0.91063087  0.07008268  0.06760392     1.07900
C306        C  0.14855276  0.07287041  0.06833433     1.07400
C307        C  0.06093984  0.88718948  0.04648347     1.07800
C308        C  0.82214967  0.88908526  0.04760133     1.07300
H309        H  0.04109653  0.96041723  0.06260591     0.34000
O310        O  0.02623774  0.96886608  0.04394268    -1.28500
H311        H  0.87907242  0.89226441  0.47633509     0.34000
O312        O  0.91316235  0.92285624  0.48140910    -1.29900
C313        C  0.77365833  0.86868079  0.06904865     0.04300
C314        C  0.74893371  0.81816355  0.08421912    -0.11900
C315        C  0.70164966  0.80168915  0.10241716     0.01800
C316        C  0.67884158  0.83397489  0.10432502    -0.10400
C317        C  0.70592705  0.88592355  0.09385119     0.04300
C318        C  0.75300709  0.90343087  0.07594084    -0.09800
H319        H  0.76634010  0.79276918  0.08231043     0.09900
H320        H  0.64282826  0.82092734  0.11867902     0.07400
H321        H  0.77381871  0.94431834  0.06794076     0.07200
C322        C  0.78285327  0.88575174  0.41365417     0.04300
C323        C  0.75448847  0.91261109  0.40784760    -0.11900
C324        C  0.70022674  0.88417989  0.40013216     0.01800
C325        C  0.67281618  0.82901919  0.40136161    -0.10400
C326        C  0.70047633  0.80114022  0.40176525     0.04300
C327        C  0.75643142  0.82970811  0.40807500    -0.09800
H328        H  0.77508422  0.95567445  0.40794113     0.09900
H329        H  0.63090278  0.80796587  0.39443821     0.07400
H330        H  0.77871564  0.80891603  0.40875073     0.07200
C331        C  0.93560871  0.87689828  0.13648454     0.04300
C332        C  0.87981217  0.84883098  0.14372937    -0.11900
C333        C  0.85526133  0.79653468  0.15638113     0.01800
C334        C  0.88579553  0.77315563  0.16269949    -0.10400
C335        C  0.93937793  0.79787251  0.15547672     0.04300
C336        C  0.96514679  0.85031153  0.14309667    -0.09800
H337        H  0.85492424  0.86523374  0.13641294     0.09900
H338        H  0.86658185  0.73313604  0.17259477     0.07400
H339        H  0.00623512  0.86786477  0.13528344     0.07200
C340        C  0.87863295  0.76092742  0.44341692     0.04300
C341        C  0.82421950  0.73605739  0.43513061    -0.11900
C342        C  0.79959896  0.68601147  0.41976886     0.01800
C343        C  0.82891005  0.66048761  0.41411789    -0.10400
C344        C  0.88373236  0.68675687  0.41957418     0.04300
C345        C  0.90857236  0.73651909  0.43515279    -0.09800
H346        H  0.80207854  0.75664727  0.43894902     0.09900
H347        H  0.81068208  0.62352459  0.40017881     0.07400
H348        H  0.95116176  0.75725749  0.43918623     0.07200
C349        C  0.67583848  0.94989579  0.16250361     0.24700
C350        C  0.62303078  0.93688376  0.15442191    -0.23400
C351        C  0.60556649  0.92119754  0.12179596     0.19600
C352        C  0.63751725  0.91318240  0.09924415     0.24700
C353        C  0.68768693  0.92089545  0.10854738    -0.23300
C354        C  0.70772849  0.94232759  0.13974140     0.19600
F355        F  0.75576591  0.94947686  0.14964211    -0.13300
F356        F  0.69601019  0.96694017  0.19307779    -0.15600
F357        F  0.61703495  0.89208416  0.06933690    -0.15600
F358        F  0.55646893  0.91084443  0.11191933    -0.13300
C359        C  0.71710473  0.08347166  0.11391033     0.24700
C360        C  0.76414480  0.08458706  0.12370750    -0.23400
C361        C  0.77523333  0.08521456  0.15726310     0.19600
C362        C  0.74136542  0.08753596  0.18069489     0.24700
C363        C  0.69538171  0.08928265  0.17108037    -0.23300
C364        C  0.68274415  0.08539274  0.13733946     0.19600
F365        F  0.63699952  0.08303948  0.12689793    -0.13300
F366        F  0.70616303  0.08365998  0.08155806    -0.15600
F367        F  0.75445639  0.08929017  0.21283894    -0.15600
F368        F  0.82167117  0.08857026  0.16727594    -0.13300
C369        C  0.72089276  0.08858808  0.40593886     0.24700
C370        C  0.76337799  0.08044534  0.39764391    -0.23400
C371        C  0.76242837  0.05747608  0.36708370     0.19600
C372        C  0.72293433  0.04822298  0.34386301     0.24700
C373        C  0.68261153  0.06094601  0.35087895    -0.23300
C374        C  0.68074159  0.07864331  0.38299486     0.19600
F375        F  0.64157969  0.08888752  0.39200100    -0.13300
F376        F  0.72102713  0.11086564  0.43533228    -0.15600
F377        F  0.72644073  0.02971745  0.31387116    -0.15600
F378        F  0.80351147  0.04996252  0.35823176    -0.13300
C379        C  0.68824057  0.90886749  0.34521365     0.24700
C380        C  0.67600016  0.90648961  0.37864566    -0.23400
C381        C  0.62925857  0.90581559  0.38833676     0.19600
C382        C  0.59365693  0.90469521  0.36475897     0.24700
C383        C  0.60392237  0.90304849  0.33106348    -0.23300
C384        C  0.65233170  0.90646577  0.32162736     0.19600
F385        F  0.66453673  0.90616076  0.28952625    -0.13300
F386        F  0.73264845  0.90794253  0.33535620    -0.15600
F387        F  0.54947607  0.90563429  0.37501177    -0.15600
F388        F  0.61671656  0.90296928  0.42058502    -0.13300
C389        C  0.38284213  0.07119402  0.13473041     0.24700
C390        C  0.38024549  0.08136165  0.16833479    -0.23400
C391        C  0.34019743  0.09184924  0.17922167     0.19600
C392        C  0.30435068  0.09319075  0.15698731     0.24700
C393        C  0.30807968  0.08474390  0.12340879    -0.23300
C394        C  0.34711992  0.07325049  0.11239913     0.19600
F395        F  0.35189666  0.06623936  0.07991949    -0.13300
F396        F  0.41935872  0.05852916  0.12354699    -0.15600
F397        F  0.26864290  0.10727817  0.16784219    -0.15600
F398        F  0.33662009  0.10241148  0.21130900    -0.13300
C399        C  0.27111273  0.95279412  0.15865251     0.24700
C400        C  0.31013473  0.93818548  0.15187347    -0.23400
C401        C  0.31060155  0.91854590  0.12015831     0.19600
C402        C  0.27076308  0.90951652  0.09719552     0.24700
C403        C  0.22938986  0.91967109  0.10521102    -0.23300
C404        C  0.23162601  0.94400163  0.13549853     0.19600
F405        F  0.19136585  0.95277109  0.14438660    -0.13300
F406        F  0.26907096  0.97309871  0.18833128    -0.15600
F407        F  0.26866941  0.88445173  0.06854926    -0.15600
F408        F  0.34720203  0.90423663  0.11189900    -0.13300
C409        C  0.25391560  0.91583101  0.32410511     0.24700
C410        C  0.29888179  0.91293049  0.33475781    -0.23400
C411        C  0.30850453  0.91345475  0.36871273     0.19600
C412        C  0.27183113  0.91257920  0.39126341     0.24700
C413        C  0.22608691  0.91297052  0.38032539    -0.23300
C414        C  0.21863917  0.91698519  0.34673741     0.19600
F415        F  0.17381463  0.91605613  0.33565008    -0.13300
F416        F  0.24290543  0.91623160  0.29175425    -0.15600
F417        F  0.27853762  0.90684793  0.42362225    -0.15600
F418        F  0.35263695  0.91357266  0.38023302    -0.13300
C419        C  0.35940953  0.08353271  0.40695010     0.24700
C420        C  0.30991024  0.07826736  0.39869026    -0.23400
C421        C  0.28754582  0.05696046  0.36786807     0.19600
C422        C  0.31660615  0.04668203  0.34438051     0.24700
C423        C  0.36806579  0.05514119  0.35169395    -0.23300
C424        C  0.38787115  0.07141126  0.38398068     0.19600
F425        F  0.43629625  0.07883807  0.39304404    -0.13300
F426        F  0.38238245  0.10509246  0.43632613    -0.15600
F427        F  0.29521273  0.03143701  0.31391716    -0.15600
F428        F  0.24000098  0.05221714  0.35911263    -0.13300
C429        C  0.09820007  0.74543605  0.18247636     0.24700
C430        C  0.09806645  0.69864769  0.17293192    -0.23400
C431        C  0.08546323  0.68149724  0.13992220     0.19600
C432        C  0.07537832  0.71132095  0.11704321     0.24700
C433        C  0.07743904  0.75884123  0.12641578    -0.23300
C434        C  0.08761234  0.77481951  0.15960298     0.19600
F435        F  0.09338110  0.82246357  0.16898412    -0.13300
F436        F  0.11008373  0.76369864  0.21382761    -0.15600
F437        F  0.06838689  0.69635621  0.08500139    -0.15600
F438        F  0.08260457  0.63559493  0.12955522    -0.13300
C439        C  0.97838130  0.76192883  0.19380060     0.24700
C440        C  0.96337614  0.76380558  0.16149155    -0.23400
C441        C  0.94772911  0.71859930  0.14123080     0.19600
C442        C  0.94500912  0.67190285  0.15354031     0.24700
C443        C  0.95740058  0.66901801  0.18660092    -0.23300
C444        C  0.97482062  0.71554099  0.20635414     0.19600
F445        F  0.98679271  0.71630320  0.23863024    -0.13300
F446        F  0.99111783  0.80357151  0.21442444    -0.15600
F447        F  0.92861940  0.62920520  0.13333835    -0.15600
F448        F  0.93016448  0.71809046  0.11028282    -0.13300
C449        C  0.93940968  0.66491723  0.34339076     0.24700
C450        C  0.92896329  0.61255248  0.34787115    -0.23400
C451        C  0.91373509  0.58954252  0.37914745     0.19600
C452        C  0.90541330  0.61692514  0.40462009     0.24700
C453        C  0.91341731  0.66813179  0.39955263    -0.23300
C454        C  0.93267481  0.69279098  0.36920868     0.19600
F455        F  0.93949825  0.74189057  0.36353445    -0.13300
F456        F  0.95355161  0.68829629  0.31357220    -0.15600
F457        F  0.88528812  0.59190777  0.43346213    -0.15600
F458        F  0.90575921  0.54009413  0.38499393    -0.13300
C459        C  0.07132959  0.70882758  0.33375686     0.24700
C460        C  0.08262290  0.67081866  0.34790856    -0.23400
C461        C  0.08680396  0.67103191  0.38236995     0.19600
C462        C  0.08411216  0.71055423  0.40151330     0.24700
C463        C  0.07480068  0.74935969  0.38687999    -0.23300
C464        C  0.06644805  0.74633583  0.35294723     0.19600
F465        F  0.05914180  0.78377995  0.33770602    -0.13300
F466        F  0.06616613  0.71121366  0.30081691    -0.15600
F467        F  0.09528384  0.71389080  0.43405317    -0.15600
F468        F  0.09702579  0.63541706  0.39740613    -0.13300
C469        C  0.91462031  0.32404494  0.11386580     0.24700
C470        C  0.92178585  0.32430154  0.14801579    -0.23400
C471        C  0.93185438  0.28487842  0.16121228     0.19600
C472        C  0.93175072  0.24538467  0.14145603     0.24700
C473        C  0.91948563  0.24196091  0.10803556    -0.23300
C474        C  0.91246673  0.28268210  0.09416541     0.19600
F475        F  0.89895853  0.27977062  0.06205282    -0.13300
F476        F  0.90584881  0.36136852  0.09989771    -0.15600
F477        F  0.93689800  0.20610914  0.15597843    -0.15600
F478        F  0.94046214  0.28295485  0.19379142    -0.13300
C479        C  0.07756652  0.36838144  0.09125862     0.24700
C480        C  0.07844619  0.32177008  0.09890358    -0.23400
C481        C  0.06818447  0.30277639  0.13114082     0.19600
C482        C  0.06123725  0.33208907  0.15591527     0.24700
C483        C  0.06255609  0.38019409  0.14868834    -0.23300
C484        C  0.06900855  0.39710400  0.11588361     0.19600
F485        F  0.06793915  0.44185533  0.10770255    -0.13300
F486        F  0.08829140  0.38766802  0.06030636    -0.15600
F487        F  0.05574015  0.31452689  0.18722565    -0.16200
F488        F  0.07007859  0.25834130  0.13918809    -0.13300
C489        C  0.01205663  0.27337166  0.29189828     0.24700
C490        C  0.03236912  0.32033048  0.31163283    -0.23400
C491        C  0.04692447  0.31726200  0.34414835     0.19600
C492        C  0.04528991  0.27060842  0.35555050     0.24700
C493        C  0.02807095  0.22547811  0.33501294    -0.23300
C494        C  0.00961609  0.22698627  0.30361186     0.19600
F495        F  0.99425337  0.18496902  0.28287785    -0.13300
F496        F  0.99556378  0.27190577  0.26051717    -0.15600
F497        F  0.06525338  0.27107501  0.38575616    -0.15600
F498        F  0.06485954  0.35992626  0.36453877    -0.13300
C499        C  0.92678101  0.32105839  0.36236940     0.24700
C500        C  0.90909110  0.30245534  0.33012989    -0.23400
C501        C  0.89754879  0.25084393  0.32145494     0.19600
C502        C  0.90249808  0.21837886  0.34467024     0.24700
C503        C  0.91730916  0.23608853  0.37728626    -0.23300
C504        C  0.93016793  0.28788688  0.38578576     0.19600
F505        F  0.94246962  0.30506825  0.41729577    -0.13300
F506        F  0.94106133  0.37158018  0.37133297    -0.15600
F507        F  0.88728424  0.16732090  0.33633790    -0.15600
F508        F  0.87991050  0.23112754  0.29085507    -0.13300
C509        C  0.63300333  0.70911784  0.33201137     0.24700
C510        C  0.58554376  0.66837214  0.34630557    -0.23400
C511        C  0.58301720  0.66657594  0.38083802     0.19600
C512        C  0.62476487  0.70632757  0.40010090     0.24700
C513        C  0.67075513  0.74794654  0.38542249    -0.23300
C514        C  0.67469917  0.74745748  0.35122267     0.19600
F515        F  0.71692433  0.78800813  0.33597035    -0.13300
F516        F  0.63930838  0.71340896  0.29898690    -0.15600
F517        F  0.61839540  0.70674716  0.43302111    -0.15600
F518        F  0.53902964  0.62827921  0.39598458    -0.13300
C519        C  0.72046441  0.66301880  0.34403369     0.24700
C520        C  0.68087131  0.60935522  0.34774154    -0.23400
C521        C  0.67462969  0.58567957  0.37872565     0.19600
C522        C  0.70919487  0.61394223  0.40459886     0.24700
C523        C  0.75062457  0.66622025  0.40005490    -0.23300
C524        C  0.75443375  0.69129850  0.37007768     0.19600
F525        F  0.79481958  0.74154751  0.36489984    -0.13300
F526        F  0.72841840  0.68750799  0.31466451    -0.15600
F527        F  0.70509479  0.58895387  0.43337883    -0.15600
F528        F  0.63587343  0.53476247  0.38392151    -0.13300
C529        C  0.72284226  0.67071857  0.15305641     0.24700
C530        C  0.70952221  0.66432435  0.18655775    -0.23400
C531        C  0.74061311  0.70827040  0.20786132     0.19600
C532        C  0.78307290  0.75562674  0.19630508     0.24700
C533        C  0.79782090  0.76110329  0.16333270    -0.23300
C534        C  0.76695874  0.71819503  0.14173135     0.19600
F535        F  0.78235566  0.72077729  0.11008752    -0.13300
F536        F  0.69403604  0.63095004  0.13133292    -0.15600
F537        F  0.81397913  0.79428197  0.21827018    -0.15600
F538        F  0.73170515  0.70536627  0.24066113    -0.13300
C539        C  0.63243008  0.70998905  0.11563357     0.24700
C540        C  0.67788308  0.75708343  0.12551392    -0.23400
C541        C  0.68492571  0.77081780  0.15906014     0.19600
C542        C  0.64560094  0.74041552  0.18183503     0.24700
C543        C  0.59842110  0.69469268  0.17177797    -0.23300
C544        C  0.59313687  0.67900738  0.13844005     0.19600
F545        F  0.55010118  0.63341330  0.12773702    -0.13300
F546        F  0.62423698  0.69614328  0.08342284    -0.15600
F547        F  0.65322878  0.75667560  0.21365341    -0.15600
F548        F  0.72750017  0.81736750  0.16911199    -0.13300
C549        C  0.32167346  0.40302867  0.11457119     0.24700
C550        C  0.31335090  0.38153530  0.14640581    -0.23400
C551        C  0.26853587  0.33126053  0.15189084     0.19600
C552        C  0.23328652  0.30322892  0.12634869     0.24700
C553        C  0.24041099  0.32566934  0.09509714    -0.23300
C554        C  0.28530570  0.37539958  0.08922532     0.19600
F555        F  0.29199026  0.39858815  0.05948978    -0.13300
F556        F  0.36413350  0.45146004  0.10809423    -0.15600
F557        F  0.18895754  0.25614880  0.13293999    -0.15600
F558        F  0.25730125  0.30994691  0.18234523    -0.13300
C559        C  0.30687467  0.24622621  0.13961862     0.24700
C560        C  0.31488427  0.24301690  0.10610777    -0.23400
C561        C  0.36330356  0.28239567  0.09232962     0.19600
C562        C  0.40386451  0.32203334  0.11225564     0.24700
C563        C  0.39751084  0.32174185  0.14648344    -0.23300
C564        C  0.34768783  0.28344349  0.15961307     0.19600
F565        F  0.33788354  0.28071554  0.19229320    -0.13300
F566        F  0.26108946  0.20894789  0.15384621    -0.15600
F567        F  0.45052998  0.35803319  0.09839524    -0.15600
F568        F  0.37289824  0.27980125  0.06002233    -0.13300
C569        C  0.39199679  0.31985342  0.36324472     0.24700
C570        C  0.38961303  0.30115614  0.33083989    -0.23400
C571        C  0.34804227  0.25016307  0.32236999     0.19600
C572        C  0.31058902  0.21855497  0.34579076     0.24700
C573        C  0.31477067  0.23624867  0.37850638    -0.23300
C574        C  0.35523419  0.28750057  0.38683524     0.19600
F575        F  0.36150472  0.30474354  0.41839205    -0.13300
F576        F  0.43017837  0.36952138  0.37232158    -0.15600
F577        F  0.27316965  0.16809242  0.33746153    -0.15600
F578        F  0.34427409  0.23016472  0.29167312    -0.13300
C579        C  0.26524606  0.31708613  0.34347691     0.24700
C580        C  0.28396709  0.31869803  0.31140946    -0.23400
C581        C  0.25785463  0.27098603  0.29235164     0.19600
C582        C  0.21338537  0.22526437  0.30410885     0.24700
C583        C  0.19276092  0.22492670  0.33508321    -0.23300
C584        C  0.22026865  0.27076654  0.35511559     0.19600
F585        F  0.20042951  0.27211156  0.38500873    -0.13300
F586        F  0.28869621  0.36082774  0.36309973    -0.15600
F587        F  0.18747009  0.18246570  0.28387355    -0.15600
F588        F  0.27439628  0.26793707  0.26168417    -0.13300
O589        O  0.47100107  0.37685327  0.81526627    -0.74100
O590        O  0.40921953  0.33174886  0.77588799    -0.53100
C591        C  0.42622372  0.33762040  0.80556902     0.79600
O592        O  0.50272999  0.58357171  0.83507057    -0.58700
O593        O  0.54778077  0.63667370  0.79375861    -0.51800
C594        C  0.54194948  0.62770677  0.82433356     0.71600
O595        O  0.36034267  0.41046549  0.81443631    -0.73300
O596        O  0.34109742  0.36205016  0.76751838    -0.53900
C597        C  0.33106347  0.36746030  0.79725242     0.77600
O598        O  0.61891742  0.52844142  0.82055579    -0.58500
O599        O  0.63496518  0.60736385  0.79930003    -0.51600
C600        C  0.64351672  0.57980302  0.82041895     0.74200
Zr601      Zr  0.54575793  0.45379343  0.78993396     2.54700
O602        O  0.57542049  0.42268932  0.83653748    -0.79000
O603        O  0.59618888  0.41352261  0.76831852    -0.92400
Zr604      Zr  0.43754489  0.50222603  0.80262460     2.64700
O605        O  0.41106439  0.48715223  0.85997157    -0.97400
O606        O  0.37756660  0.53851088  0.80015540    -0.79400
O607        O  0.46163858  0.44170486  0.78635664    -0.82800
O608        O  0.52869761  0.52341110  0.80253321    -2.17500
O609        O  0.63453715  0.57093194  0.68418670    -0.66200
O610        O  0.64683614  0.62525072  0.72779629    -0.50800
C611        C  0.66091882  0.61624305  0.70001875     0.72600
O612        O  0.38053867  0.46114750  0.67165463    -0.59100
O613        O  0.35597932  0.38255695  0.69646240    -0.51100
C614        C  0.35202958  0.41030538  0.67335823     0.74400
O615        O  0.51414231  0.62130644  0.68674123    -0.70500
O616        O  0.58081487  0.65766028  0.72465375    -0.49200
C617        C  0.56091719  0.65756897  0.69648792     0.75800
O618        O  0.47829761  0.40652476  0.66034164    -0.65800
O619        O  0.43387487  0.34736540  0.69943975    -0.53000
C620        C  0.44016268  0.36039760  0.66945383     0.74100
Zr621      Zr  0.55132297  0.48020753  0.69382410     2.77500
O622        O  0.57689026  0.48874129  0.63626858    -0.96600
O623        O  0.60153697  0.43318855  0.69477953    -0.77400
Zr624      Zr  0.44620071  0.53275025  0.70631504     2.70100
O625        O  0.41241582  0.55795948  0.65890463    -0.78600
O626        O  0.39093632  0.56574826  0.73018454    -0.97700
Zr627      Zr  0.42265819  0.40212784  0.73858864     2.21500
Zr628      Zr  0.56724216  0.58328597  0.75776912     2.11100
O629        O  0.53556927  0.55081030  0.70371488    -2.46400
O630        O  0.46636115  0.46607981  0.70081415    -0.78400
O631        O  0.58887143  0.51507016  0.74686435    -0.70600
O632        O  0.40111385  0.47039974  0.74896094    -2.31600
O633        O  0.51187911  0.41697774  0.73708176    -2.27800
O634        O  0.47779678  0.56656032  0.75982392    -0.72400
H635        H  0.54329700  0.53635679  0.82397889     0.79600
H636        H  0.36305329  0.45718683  0.74812600     0.80700
H637        H  0.55477940  0.57296841  0.68560909     0.82900
H638        H  0.51343224  0.38467644  0.73327807     0.80500
H639        H  0.34145709  0.50688459  0.79900287     0.43600
H640        H  0.40102083  0.59911939  0.71830168     0.42500
H641        H  0.43510584  0.55927432  0.64040779     0.42200
H642        H  0.57376957  0.51920219  0.62821589     0.40100
H643        H  0.63702862  0.45954973  0.70345645     0.43300
H644        H  0.57807093  0.37691637  0.77705454     0.38100
H645        H  0.56126499  0.43186047  0.85604338     0.44200
H646        H  0.44180206  0.48852227  0.87158730     0.40600
H647        H  0.61570314  0.50157028  0.63647284     0.45500
H648        H  0.63082563  0.43179615  0.78004741     0.44200
H649        H  0.41086618  0.51975858  0.86716786     0.44400
H650        H  0.35442675  0.54061090  0.72236265     0.44700
O651        O  0.04883530  0.41268881  0.81510477    -0.74100
O652        O  0.02163637  0.36566382  0.76769327    -0.53100
C653        C  0.03549860  0.36995605  0.79766079     0.79600
O654        O  0.91074228  0.53221733  0.82114339    -0.58700
O655        O  0.97387913  0.61087145  0.80004597    -0.51800
C656        C  0.93746184  0.58338897  0.82088800     0.71600
O657        O  0.90464408  0.37888366  0.81506039    -0.73300
O658        O  0.92240474  0.33462689  0.77574000    -0.53900
C659        C  0.91007435  0.33967334  0.80517215     0.77600
O660        O  0.08256018  0.58692948  0.83630887    -0.58500
O661        O  0.09102128  0.64082154  0.79530795    -0.51600
C662        C  0.08723568  0.63117824  0.82582167     0.74200
Zr663      Zr  0.06596641  0.50577322  0.80337250     2.54700
O664        O  0.07826849  0.49493228  0.86137823    -0.79000
O665        O  0.16169351  0.53870706  0.80249092    -0.92400
Zr666      Zr  0.90992341  0.45815504  0.79111654     2.64700
O667        O  0.85504025  0.42463592  0.84007193    -0.97400
O668        O  0.81880256  0.42163353  0.77104997    -0.79400
O669        O  0.98111628  0.44471977  0.78825592    -0.82800
O670        O  0.99653845  0.52774718  0.80387959    -2.17500
O671        O  0.10922934  0.62535918  0.68857872    -0.66200
O672        O  0.07929646  0.66241677  0.72614580    -0.50800
C673        C  0.09890491  0.66195544  0.69803214     0.72600
O674        O  0.92750188  0.41018771  0.66153681    -0.59100
O675        O  0.91355507  0.35159289  0.70093363    -0.51100
C676        C  0.91955415  0.36409155  0.67087451     0.74400
O677        O  0.93748063  0.57537480  0.68543580    -0.70500
O678        O  0.98225554  0.63065575  0.72813024    -0.49200
C679        C  0.95785641  0.62119239  0.70071299     0.75800
O680        O  0.07600131  0.46159834  0.67224078    -0.65800
O681        O  0.02543353  0.38436588  0.69911669    -0.53000
C682        C  0.05466525  0.41086686  0.67506984     0.74100
Zr683      Zr  0.08688864  0.53540609  0.70735471     2.77500
O684        O  0.14241400  0.55961437  0.65835767    -0.96600
O685        O  0.17587301  0.56200299  0.72807733    -0.77400
Zr686      Zr  0.93044353  0.48515359  0.69489391     2.70100
O687        O  0.92054014  0.50056809  0.63732116    -0.78600
O688        O  0.83346055  0.44101955  0.69442600    -0.97700
Zr689      Zr  0.97975649  0.40625784  0.73990741     2.21500
Zr690      Zr  0.01869123  0.58756102  0.75889444     2.11100
O691        O  0.01689831  0.55539364  0.70465969    -2.46400
O692        O  0.00029725  0.46945380  0.70147214    -0.78400
O693        O  0.08128682  0.56142171  0.75951586    -0.70600
O694        O  0.90590713  0.42173254  0.73815214    -2.31600
O695        O  0.07024313  0.47327844  0.75000311    -2.27800
O696        O  0.92872111  0.52005380  0.74810912    -0.72400
H697        H  0.99488480  0.54064753  0.82534710     0.79600
H698        H  0.87205172  0.39004117  0.73439590     0.80700
H699        H  0.02011232  0.57780816  0.68663582     0.82900
H700        H  0.09480913  0.45967221  0.74918694     0.80500
H701        H  0.80082938  0.38369093  0.77723958     0.43600
H702        H  0.82537010  0.47009160  0.69121686     0.42500
H703        H  0.95594686  0.53007797  0.63092388     0.42200
H704        H  0.12229594  0.56665910  0.64135220     0.40100
H705        H  0.19415761  0.60126655  0.72921811     0.43300
H706        H  0.16578786  0.51012497  0.81292558     0.38100
H707        H  0.04179895  0.47645357  0.87047545     0.44200
H708        H  0.87994470  0.44204656  0.85868313     0.40600
H709        H  0.17380471  0.59480555  0.66327691     0.45500
H710        H  0.17676297  0.56812812  0.81872729     0.44200
H711        H  0.83172456  0.44061531  0.84002802     0.44400
H712        H  0.82286440  0.42085153  0.67347017     0.44700
O713        O  0.37644183  0.90801060  0.82030919    -0.74100
O714        O  0.33375414  0.92735734  0.78134372    -0.53100
C715        C  0.33787435  0.91480295  0.81066295     0.79600
O716        O  0.60710887  0.06793570  0.83257987    -0.58700
O717        O  0.64356718  0.03380878  0.79750976    -0.51800
C718        C  0.64235061  0.05449526  0.82526654     0.71600
O719        O  0.44792719  0.05713013  0.83422261    -0.73300
O720        O  0.38090273  0.03193371  0.79717147    -0.53900
C721        C  0.40097907  0.04771687  0.82601316     0.77600
O722        O  0.52076509  0.89322780  0.81395035    -0.58500
O723        O  0.59167581  0.93127240  0.77971013    -0.51600
C724        C  0.56923986  0.90745449  0.80623914     0.74200
Zr725      Zr  0.44867341  0.90504888  0.79109879     2.54700
O726        O  0.42575406  0.85088093  0.84030924    -0.79000
O727        O  0.39433712  0.81472114  0.77019070    -0.92400
Zr728      Zr  0.52643533  0.06304576  0.80760880     2.64700
O729        O  0.53282894  0.08387281  0.86605699    -0.97400
O730        O  0.57018219  0.15948441  0.80463283    -0.79400
O731        O  0.45145173  0.98505383  0.79440781    -0.82800
O732        O  0.53040378  0.98432697  0.80081995    -2.17500
O733        O  0.53868777  0.92674022  0.67171547    -0.66200
O734        O  0.60866593  0.96215815  0.70737251    -0.50800
C735        C  0.58757736  0.94141752  0.67950712     0.72600
O736        O  0.46119654  0.08373150  0.68357919    -0.59100
O737        O  0.39459966  0.05721688  0.72054631    -0.51100
C738        C  0.41473130  0.07492927  0.69239808     0.74400
O739        O  0.62133471  0.09910225  0.68813224    -0.70500
O740        O  0.65667987  0.06431622  0.72327930    -0.49200
C741        C  0.65658101  0.08598019  0.69604869     0.75800
O742        O  0.38813162  0.93528375  0.66910898    -0.65800
O743        O  0.34432358  0.95710367  0.70668895    -0.53000
C744        C  0.34983082  0.94354019  0.67752928     0.74100
Zr745      Zr  0.46095988  0.92909277  0.69607483     2.77500
O746        O  0.44610012  0.90574925  0.63796543    -0.96600
O747        O  0.41137132  0.83270473  0.70070348    -0.77400
Zr748      Zr  0.53753476  0.08708451  0.71235728     2.70100
O749        O  0.56395880  0.14340572  0.66403669    -0.78600
O750        O  0.57431679  0.17671571  0.73461798    -0.97700
Zr751      Zr  0.40700811  0.99488502  0.75186342     2.21500
Zr752      Zr  0.58090717  0.99771199  0.75204118     2.11100
O753        O  0.54221011  0.00886719  0.70302512    -2.46400
O754        O  0.46176809  0.00608867  0.70949318    -0.78400
O755        O  0.50035012  0.91497445  0.74345466    -0.70600
O756        O  0.48693133  0.07795143  0.76046329    -2.31600
O757        O  0.40624636  0.91282091  0.74298490    -2.27800
O758        O  0.58047145  0.07928290  0.76034038    -0.72400
H759        H  0.54565507  0.98005547  0.82085474     0.79600
H760        H  0.47978093  0.10711187  0.76355558     0.80700
H761        H  0.56115737  0.01298735  0.68286372     0.82900
H762        H  0.37042683  0.88306663  0.73976556     0.80500
H763        H  0.54500817  0.16855420  0.81540618     0.43600
H764        H  0.61112154  0.19613006  0.72605759     0.42500
H765        H  0.55353132  0.11850718  0.64518909     0.42200
H766        H  0.47600952  0.93567125  0.62652304     0.40100
H767        H  0.37479362  0.82243971  0.69339042     0.43300
H768        H  0.35891654  0.80206448  0.78022747     0.38100
H769        H  0.43726058  0.87658602  0.85878238     0.44200
H770        H  0.53537982  0.05494200  0.87711996     0.40600
H771        H  0.45254741  0.87543317  0.63521471     0.45500
H772        H  0.40866034  0.79406349  0.78118800     0.44200
H773        H  0.56829015  0.11590467  0.86921074     0.44400
H774        H  0.55515393  0.19196572  0.72274856     0.44700
C775        C  0.05336604  0.11148814  0.86119846     0.04300
C776        C  0.10912605  0.13835206  0.85389098    -0.11900
C777        C  0.13444952  0.18972233  0.83986622     0.01800
C778        C  0.10432060  0.21308167  0.83180821    -0.10400
C779        C  0.05101616  0.19012282  0.83995915     0.04300
C780        C  0.02482370  0.13880239  0.85397652    -0.09800
H781        H  0.13355170  0.12205024  0.86235970     0.09900
H782        H  0.12400553  0.25241440  0.82096729     0.07400
H783        H  0.98425675  0.12286436  0.86247568     0.07200
C784        C  0.11224702  0.22904396  0.55394387     0.04300
C785        C  0.08208466  0.25261168  0.56355441    -0.11900
C786        C  0.10723779  0.30350470  0.57768636     0.01800
C787        C  0.16254394  0.33154328  0.58080691    -0.10400
C788        C  0.19235822  0.30669547  0.57454504     0.04300
C789        C  0.16759114  0.25610499  0.55972242    -0.09800
H790        H  0.03925394  0.23064316  0.56140966     0.09900
H791        H  0.18113845  0.36914528  0.59407973     0.07400
H792        H  0.19050007  0.23670414  0.55474957     0.07200
C793        C  0.08976060  0.86713767  0.56777861     0.04300
C794        C  0.14551289  0.90176879  0.57355106    -0.11900
C795        C  0.17588379  0.88450678  0.59097197     0.01800
C796        C  0.15141565  0.83302488  0.60213739    -0.10400
C797        C  0.09630075  0.80178619  0.60219715     0.04300
C798        C  0.06453373  0.81776351  0.58437020    -0.09800
H799        H  0.16535805  0.94244719  0.56512095     0.09900
H800        H  0.17507607  0.82008953  0.61598932     0.07400
H801        H  0.02161848  0.79297552  0.58384001     0.07200
C802        C  0.88812398  0.10153706  0.58300210     0.04300
C803        C  0.83415859  0.07546782  0.59234206    -0.11900
C804        C  0.80972096  0.10509188  0.60130945     0.01800
C805        C  0.83740251  0.16009466  0.59826106    -0.10400
C806        C  0.89230176  0.18737096  0.59364616     0.04300
C807        C  0.91808080  0.15783790  0.58600429    -0.09800
H808        H  0.81196217  0.03255889  0.59390037     0.09900
H809        H  0.81816336  0.18223752  0.60629144     0.07400
H810        H  0.96060973  0.17813976  0.58272511     0.07200
C811        C  0.90159305  0.12536036  0.93311861     0.04300
C812        C  0.92800874  0.17560666  0.91793636    -0.11900
C813        C  0.89730977  0.19506379  0.90262197     0.01800
C814        C  0.84192943  0.16665127  0.90435492    -0.10400
C815        C  0.81597927  0.11385270  0.91334972     0.04300
C816        C  0.84542292  0.09326408  0.92822559    -0.09800
H817        H  0.97110067  0.19815117  0.91710419     0.09900
H818        H  0.81915775  0.18209964  0.89200618     0.07400
H819        H  0.82449950  0.05174343  0.93498975     0.07200
C820        C  0.22066711  0.12661524  0.93594708     0.04300
C821        C  0.24429944  0.17652063  0.92009702    -0.11900
C822        C  0.29358100  0.19491433  0.90385097     0.01800
C823        C  0.31963128  0.16546139  0.90501491    -0.10400
C824        C  0.29277211  0.11305623  0.91482682     0.04300
C825        C  0.24397223  0.09381554  0.93089353    -0.09800
H826        H  0.22417876  0.19956573  0.91945430     0.09900
H827        H  0.35694109  0.17975040  0.89189171     0.07400
H828        H  0.22336498  0.05252225  0.93815424     0.07200
C829        C  0.09524872  0.88594914  0.91433183     0.04300
C830        C  0.06764380  0.82988417  0.90883953    -0.11900
C831        C  0.09686080  0.80321842  0.90214247     0.01800
C832        C  0.15215662  0.83303547  0.90089203    -0.10400
C833        C  0.17792266  0.88817382  0.90022622     0.04300
C834        C  0.15021578  0.91473830  0.90809387    -0.09800
H835        H  0.02473382  0.80765249  0.90984650     0.09900
H836        H  0.17436400  0.81343386  0.89372194     0.07400
H837        H  0.17113353  0.95781490  0.90842078     0.07200
C838        C  0.20208304  0.10389691  0.58387310     0.04300
C839        C  0.22894112  0.07680601  0.59331259    -0.11900
C840        C  0.28344866  0.10526126  0.60072273     0.01800
C841        C  0.31211209  0.15987503  0.59602803    -0.10400
C842        C  0.28569054  0.18857219  0.59174279     0.04300
C843        C  0.22991716  0.16030603  0.58551812    -0.09800
H844        H  0.20723595  0.03397394  0.59578294     0.09900
H845        H  0.35399292  0.18107428  0.60300256     0.07400
H846        H  0.20852291  0.18161292  0.58236323     0.07200
O847        O  0.06392935  0.13633958  0.56294251    -0.85300
O848        O  0.00840004  0.02423075  0.89117399    -0.85500
O849        O  0.13783796  0.12360396  0.95357132    -0.87200
O850        O  0.98111780  0.12244383  0.95168087    -0.85900
O851        O  0.89742474  0.06050600  0.96796010    -0.85500
O852        O  0.15936964  0.06184679  0.97101797    -0.86900
O853        O  0.05200995  0.10673235  0.91619349    -0.85400
O854        O  0.08323847  0.16798954  0.51006717    -0.85000
Zr855      Zr  0.04383996  0.09235154  0.97247688     2.84300
O856        O  0.96144479  0.02158664  0.95447218    -1.06900
O857        O  0.07311845  0.06418969  0.51745300    -1.07700
C858        C  0.08492139  0.17407422  0.54151099     1.07800
C859        C  0.03601024  0.07689833  0.89089794     1.07700
C860        C  0.16966734  0.10381038  0.95498463     1.10700
C861        C  0.92948151  0.10228566  0.95215520     1.08500
H862        H  0.07704927  0.02919459  0.93599334     0.34000
O863        O  0.05304490  0.02018353  0.95424888    -1.27900
H864        H  0.97975325  0.09582761  0.52103996     0.33700
O865        O  0.98372613  0.06542248  0.51608591    -1.29600
O866        O  0.92422186  0.85311180  0.93492022    -0.85300
O867        O  0.97713385  0.96437457  0.60667187    -0.86800
O868        O  0.09469099  0.94045318  0.95681603    -0.85400
O869        O  0.83812624  0.94246314  0.95544411    -0.85500
O870        O  0.88676198  0.04448500  0.54110553    -0.85200
O871        O  0.14764567  0.04728146  0.54210431    -0.85000
O872        O  0.00919302  0.86693124  0.54714427    -0.85400
O873        O  0.85387860  0.86902261  0.54809790    -0.84800
O874        O  0.09235708  0.92790651  0.52947858    -0.85900
O875        O  0.83035532  0.92918461  0.53028007    -0.85000
O876        O  0.02972416  0.91504920  0.91719669    -0.85400
O877        O  0.10750933  0.07347810  0.58086749    -0.85200
O878        O  0.95268616  0.07141321  0.58026362    -0.84800
O879        O  0.87762465  0.91586212  0.91652685    -0.85200
O880        O  0.90838756  0.82095849  0.98779221    -0.85500
O881        O  0.93844770  0.88173542  0.58173324    -0.86900
Zr882      Zr  0.97124933  0.95044113  0.93551035     2.83100
Zr883      Zr  0.01379273  0.03845871  0.56243682     2.83500
Zr884      Zr  0.08414955  0.99405224  0.49937355     2.84100
Zr885      Zr  0.90259471  0.99388677  0.49862057     2.83400
Zr886      Zr  0.94552725  0.89626826  0.52572725     2.84200
O887        O  0.93361440  0.96701102  0.54316285    -1.07400
O888        O  0.00353591  0.92389050  0.98102097    -1.06900
C889        C  0.90564841  0.81532044  0.95627963     1.07700
C890        C  0.95219479  0.91167259  0.60694928     1.10400
C891        C  0.07094124  0.91530116  0.93020441     1.07900
C892        C  0.83671285  0.91672612  0.92907630     1.08300
C893        C  0.91062922  0.07006904  0.56760953     1.07900
C894        C  0.14855243  0.07287550  0.56833357     1.07400
C895        C  0.06094224  0.88718440  0.54648363     1.07800
C896        C  0.82215592  0.88908043  0.54759715     1.07300
H897        H  0.04109851  0.96041280  0.56260525     0.34000
O898        O  0.02624175  0.96886192  0.54394283    -1.28500
H899        H  0.87906389  0.89225862  0.97633827     0.34000
O900        O  0.91315472  0.92285284  0.98141107    -1.29900
C901        C  0.77366665  0.86867714  0.56904576     0.04300
C902        C  0.74894571  0.81816163  0.58421815    -0.11900
C903        C  0.70166077  0.80168581  0.60241516     0.01800
C904        C  0.67884849  0.83396773  0.60432026    -0.10400
C905        C  0.70593221  0.88591663  0.59384733     0.04300
C906        C  0.75301365  0.90342618  0.57593754    -0.09800
H907        H  0.76635473  0.79276925  0.58231128     0.09900
H908        H  0.64283311  0.82091745  0.61867258     0.07400
H909        H  0.77382412  0.94431341  0.56793699     0.07200
C910        C  0.78284380  0.88574458  0.91366019     0.04300
C911        C  0.75448249  0.91260678  0.90785156    -0.11900
C912        C  0.70022109  0.88417808  0.90013555     0.01800
C913        C  0.67280757  0.82901717  0.90136538    -0.10400
C914        C  0.70046469  0.80113516  0.90177132     0.04300
C915        C  0.75641927  0.82970046  0.90808266    -0.09800
H916        H  0.77508075  0.95567022  0.90794404     0.09900
H917        H  0.63089473  0.80796578  0.89444062     0.07400
H918        H  0.77870107  0.80890586  0.90876063     0.07200
C919        C  0.93560266  0.87689269  0.63648269     0.04300
C920        C  0.87980535  0.84881999  0.64372587    -0.11900
C921        C  0.85526080  0.79652705  0.65638254     0.01800
C922        C  0.88580091  0.77315686  0.66270652    -0.10400
C923        C  0.93938227  0.79787623  0.65548175     0.04300
C924        C  0.96514617  0.85031280  0.64309813    -0.09800
H925        H  0.85491319  0.86521613  0.63640588     0.09900
H926        H  0.86659159  0.73313946  0.67260517     0.07400
H927        H  0.00623431  0.86786816  0.63528416     0.07200
C928        C  0.87862951  0.76092118  0.94342381     0.04300
C929        C  0.82421427  0.73604883  0.93514116    -0.11900
C930        C  0.79959263  0.68600278  0.91977911     0.01800
C931        C  0.82890539  0.66048214  0.91412293    -0.10400
C932        C  0.88372863  0.68675322  0.91957625     0.04300
C933        C  0.90856904  0.73651433  0.93515625    -0.09800
H934        H  0.80207306  0.75663820  0.93896122     0.09900
H935        H  0.81067695  0.62352048  0.90018240     0.07400
H936        H  0.95115866  0.75725307  0.93918827     0.07200
C937        C  0.67583305  0.94987669  0.66250266     0.24700
C938        C  0.62302534  0.93686445  0.65442099    -0.23400
C939        C  0.60556239  0.92117916  0.62179450     0.19600
C940        C  0.63751365  0.91316387  0.59924278     0.24700
C941        C  0.68768683  0.92088414  0.60854459    -0.23300
C942        C  0.70772625  0.94231472  0.63973935     0.19600
F943        F  0.75576446  0.94946615  0.64964010    -0.13300
F944        F  0.69600222  0.96691615  0.69307781    -0.15600
F945        F  0.61702735  0.89205510  0.56933802    -0.15600
F946        F  0.55646540  0.91082661  0.61191709    -0.13300
C947        C  0.71710039  0.08346250  0.61390381     0.24700
C948        C  0.76414132  0.08458026  0.62370198    -0.23400
C949        C  0.77522846  0.08520668  0.65725759     0.19600
C950        C  0.74135630  0.08752049  0.68068875     0.24700
C951        C  0.69537061  0.08926284  0.67107381    -0.23300
C952        C  0.68273415  0.08537391  0.63733278     0.19600
F953        F  0.63698614  0.08301337  0.62689131    -0.13300
F954        F  0.70616446  0.08366043  0.58155141    -0.15600
F955        F  0.75444664  0.08927457  0.71283290    -0.15600
F956        F  0.82167121  0.08857415  0.66727125    -0.13300
C957        C  0.72087786  0.08858483  0.90593968     0.24700
C958        C  0.76336341  0.08044117  0.89764660    -0.23400
C959        C  0.76241638  0.05747398  0.86708598     0.19600
C960        C  0.72292537  0.04822321  0.84386364     0.24700
C961        C  0.68260363  0.06094799  0.85087750    -0.23300
C962        C  0.68073111  0.07864512  0.88299321     0.19600
F963        F  0.64157025  0.08889224  0.89199727    -0.13300
F964        F  0.72100631  0.11085587  0.93533446    -0.15600
F965        F  0.72643255  0.02971620  0.81387247    -0.15600
F966        F  0.80349894  0.04995880  0.85823561    -0.13300
C967        C  0.68823363  0.90885684  0.84521555     0.24700
C968        C  0.67599764  0.90648917  0.87864779    -0.23400
C969        C  0.62925761  0.90581863  0.88833859     0.19600
C970        C  0.59365124  0.90468779  0.86476057     0.24700
C971        C  0.60391333  0.90303280  0.83106541    -0.23300
C972        C  0.65232130  0.90644717  0.82162930     0.19600
F973        F  0.66452069  0.90613016  0.78952823    -0.13300
F974        F  0.73263906  0.90792671  0.83535853    -0.15600
F975        F  0.54946897  0.90562465  0.87501273    -0.15600
F976        F  0.61672110  0.90298419  0.92058724    -0.13300
C977        C  0.38284044  0.07119389  0.63472191     0.24700
C978        C  0.38024129  0.08135437  0.66832744    -0.23400
C979        C  0.34019577  0.09184554  0.67921485     0.19600
C980        C  0.30435024  0.09319085  0.65698105     0.24700
C981        C  0.30807749  0.08474384  0.62340241    -0.23300
C982        C  0.34711982  0.07325487  0.61239124     0.19600
F983        F  0.35190312  0.06625764  0.57991039    -0.13300
F984        F  0.41935977  0.05853464  0.62353624    -0.15600
F985        F  0.26864801  0.10728561  0.66783632    -0.15600
F986        F  0.33662037  0.10240860  0.71130223    -0.13300
C987        C  0.27111923  0.95278985  0.65864490     0.24700
C988        C  0.31013467  0.93817099  0.65186972    -0.23400
C989        C  0.31059653  0.91851934  0.62015771     0.19600
C990        C  0.27075655  0.90948503  0.59719523     0.24700
C991        C  0.22938859  0.91964918  0.60520759    -0.23300
C992        C  0.23163112  0.94399272  0.63549118     0.19600
F993        F  0.19137639  0.95277229  0.64437643    -0.13300
F994        F  0.26908551  0.97310981  0.68831983    -0.15600
F995        F  0.26865669  0.88440807  0.56855299    -0.15600
F996        F  0.34719397  0.90420433  0.61190154    -0.13300
C997        C  0.25392588  0.91585204  0.82411350     0.24700
C998        C  0.29888172  0.91293050  0.83476456    -0.23400
C999        C  0.30849583  0.91343715  0.86871958     0.19600
C1000       C  0.27182030  0.91255756  0.89127047     0.24700
C1001       C  0.22608413  0.91296593  0.88033341    -0.23300
C1002       C  0.21864902  0.91700469  0.84674664     0.19600
F1003       F  0.17383754  0.91610303  0.83565985    -0.13300
F1004       F  0.24292851  0.91628032  0.79176310    -0.15600
F1005       F  0.27851667  0.90680709  0.92362800    -0.15600
F1006       F  0.35262209  0.91354269  0.88023971    -0.13300
C1007       C  0.35940329  0.08352325  0.90694701     0.24700
C1008       C  0.30991017  0.07827118  0.89868515    -0.23400
C1009       C  0.28754768  0.05697162  0.86786134     0.19600
C1010       C  0.31660452  0.04668685  0.84437466     0.24700
C1011       C  0.36805752  0.05513046  0.85169071    -0.23300
C1012       C  0.38785892  0.07139085  0.88397913     0.19600
F1013       F  0.43627400  0.07879473  0.89304619    -0.13300
F1014       F  0.38237496  0.10507560  0.93632453    -0.15600
F1015       F  0.29521431  0.03144946  0.81391002    -0.15600
F1016       F  0.24000806  0.05223922  0.85910434    -0.13300
C1017       C  0.09819530  0.74543367  0.68248439     0.24700
C1018       C  0.09805771  0.69864343  0.67293979    -0.23400
C1019       C  0.08544249  0.68148695  0.63993203     0.19600
C1020       C  0.07535736  0.71131053  0.61705333     0.24700
C1021       C  0.07742890  0.75883631  0.62642451    -0.23300
C1022       C  0.08761055  0.77481898  0.65961085     0.19600
F1023       F  0.09338692  0.82246642  0.66899109    -0.13300
F1024       F  0.11007363  0.76369268  0.71383665    -0.15600
F1025       F  0.06835355  0.69633871  0.58501274    -0.15600
F1026       F  0.08256519  0.63557501  0.62956784    -0.13300
C1027       C  0.97839241  0.76193081  0.69379859     0.24700
C1028       C  0.96338020  0.76380804  0.66149157    -0.23400
C1029       C  0.94771921  0.71859816  0.64123171     0.19600
C1030       C  0.94499541  0.67189902  0.65353981     0.24700
C1031       C  0.95738679  0.66901103  0.68660020    -0.23300
C1032       C  0.97481710  0.71553682  0.70635286     0.19600
F1033       F  0.98678782  0.71629761  0.73862903    -0.13300
F1034       F  0.99115110  0.80358101  0.71442032    -0.15600
F1035       F  0.92860124  0.62920210  0.63333678    -0.15600
F1036       F  0.93013960  0.71808778  0.61028761    -0.13300
C1037       C  0.93939827  0.66491284  0.84338899     0.24700
C1038       C  0.92894645  0.61254569  0.84786823    -0.23400
C1039       C  0.91372316  0.58953764  0.87914527     0.19600
C1040       C  0.90541221  0.61692456  0.90462014     0.24700
C1041       C  0.91341265  0.66812964  0.89955237    -0.23300
C1042       C  0.93266488  0.69278716  0.86920739     0.19600
F1043       F  0.93948698  0.74188635  0.86353346    -0.13300
F1044       F  0.95354557  0.68829445  0.81357138    -0.15600
F1045       F  0.88530279  0.59191374  0.93346602    -0.15600
F1046       F  0.90574477  0.54008823  0.88499098    -0.13300
C1047       C  0.07132959  0.70883712  0.83375073     0.24700
C1048       C  0.08261749  0.67082405  0.84790170    -0.23400
C1049       C  0.08679647  0.67103284  0.88236270     0.19600
C1050       C  0.08410005  0.71054980  0.90150792     0.24700
C1051       C  0.07478876  0.74935622  0.88687649    -0.23300
C1052       C  0.06644238  0.74633998  0.85294315     0.19600
F1053       F  0.05913759  0.78378683  0.83770428    -0.13300
F1054       F  0.06617756  0.71123264  0.80081036    -0.15600
F1055       F  0.09526915  0.71388165  0.93404796    -0.15600
F1056       F  0.09702206  0.63541912  0.89739682    -0.13300
C1057       C  0.91463111  0.32404026  0.61386182     0.24700
C1058       C  0.92180080  0.32430064  0.64801174    -0.23400
C1059       C  0.93187041  0.28487835  0.66120854     0.19600
C1060       C  0.93175949  0.24537965  0.64145395     0.24700
C1061       C  0.91949008  0.24195204  0.60803423    -0.23300
C1062       C  0.91247131  0.28267284  0.59416288     0.19600
F1063       F  0.89895396  0.27975504  0.56205152    -0.13300
F1064       F  0.90585994  0.36136348  0.59989280    -0.15600
F1065       F  0.93689903  0.20610106  0.65597845    -0.15600
F1066       F  0.94048335  0.28295830  0.69378717    -0.13300
C1067       C  0.07758579  0.36837673  0.59126614     0.24700
C1068       C  0.07846137  0.32176470  0.59891427    -0.23400
C1069       C  0.06819328  0.30277189  0.63115136     0.19600
C1070       C  0.06124100  0.33208537  0.65592300     0.24700
C1071       C  0.06256408  0.38019214  0.64869347    -0.23300
C1072       C  0.06902441  0.39710121  0.61588814     0.19600
F1073       F  0.06795692  0.44185197  0.60770305    -0.13300
F1074       F  0.08831649  0.38766094  0.56031339    -0.15600
F1075       F  0.05572989  0.31451902  0.68723304    -0.16200
F1076       F  0.07008210  0.25833492  0.63920129    -0.13300
C1077       C  0.01204695  0.27337874  0.79190369     0.24700
C1078       C  0.03236789  0.32033739  0.81163820    -0.23400
C1079       C  0.04691994  0.31726380  0.84415405     0.19600
C1080       C  0.04529213  0.27061059  0.85555184     0.24700
C1081       C  0.02807201  0.22548215  0.83501194    -0.23300
C1082       C  0.00961375  0.22699414  0.80361240     0.19600
F1083       F  0.99425355  0.18498197  0.78287466    -0.13300
F1084       F  0.99552982  0.27191005  0.76052844    -0.15600
F1085       F  0.06526431  0.27107658  0.88575464    -0.15600
F1086       F  0.06483771  0.35991970  0.86455031    -0.13300
C1087       C  0.92678808  0.32104969  0.86236598     0.24700
C1088       C  0.90908805  0.30244498  0.83012821    -0.23400
C1089       C  0.89753242  0.25082938  0.82145425     0.19600
C1090       C  0.90248124  0.21836302  0.84466886     0.24700
C1091       C  0.91729880  0.23607430  0.87728402    -0.23300
C1092       C  0.93017170  0.28787667  0.88578226     0.19600
F1093       F  0.94248695  0.30506209  0.91729080    -0.13300
F1094       F  0.94107842  0.37157354  0.87132834    -0.15600
F1095       F  0.88726533  0.16730466  0.83633649    -0.15600
F1096       F  0.87988114  0.23111076  0.79085646    -0.13300
C1097       C  0.63299727  0.70911687  0.83201540     0.24700
C1098       C  0.58553418  0.66837281  0.84630713    -0.23400
C1099       C  0.58300356  0.66657395  0.88083964     0.19600
C1100       C  0.62475034  0.70632305  0.90010453     0.24700
C1101       C  0.67074322  0.74794170  0.88542810    -0.23300
C1102       C  0.67469234  0.74745289  0.85122866     0.19600
F1103       F  0.71692295  0.78800036  0.83597829    -0.13300
F1104       F  0.63930700  0.71340970  0.79899131    -0.15600
F1105       F  0.61837976  0.70673825  0.93302487    -0.15600
F1106       F  0.53901449  0.62827583  0.89598430    -0.13300
C1107       C  0.72046043  0.66300919  0.84404367     0.24700
C1108       C  0.68086080  0.60934914  0.84775334    -0.23400
C1109       C  0.67461587  0.58567508  0.87873865     0.19600
C1110       C  0.70918347  0.61393716  0.90461151     0.24700
C1111       C  0.75061752  0.66621301  0.90006593    -0.23300
C1112       C  0.75443140  0.69128821  0.87008690     0.19600
F1113       F  0.79482765  0.74153057  0.86490534    -0.13300
F1114       F  0.72842253  0.68749355  0.81467229    -0.15600
F1115       F  0.70508289  0.58894907  0.93339175    -0.15600
F1116       F  0.63585686  0.53475914  0.88393523    -0.13300
C1117       C  0.72284850  0.67070214  0.65306101     0.24700
C1118       C  0.70953187  0.66430840  0.68656269    -0.23400
C1119       C  0.74062473  0.70825262  0.70786635     0.19600
C1120       C  0.78307984  0.75561063  0.69630911     0.24700
C1121       C  0.79782230  0.76108993  0.66333548    -0.23300
C1122       C  0.76696218  0.71817943  0.64173485     0.19600
F1123       F  0.78235939  0.72075946  0.61009124    -0.13300
F1124       F  0.69404210  0.63093182  0.63133852    -0.15600
F1125       F  0.81399091  0.79426315  0.71827438    -0.15600
F1126       F  0.73172408  0.70534395  0.74066713    -0.13300
C1127       C  0.63244180  0.70998681  0.61563105     0.24700
C1128       C  0.67789426  0.75708086  0.62551211    -0.23400
C1129       C  0.68493467  0.77081563  0.65905828     0.19600
C1130       C  0.64560613  0.74041580  0.68183193     0.24700
C1131       C  0.59842879  0.69469048  0.67177441    -0.23300
C1132       C  0.59314924  0.67900282  0.63843712     0.19600
F1133       F  0.55012052  0.63340250  0.62773471    -0.13300
F1134       F  0.62424922  0.69614296  0.58342001    -0.15600
F1135       F  0.65322855  0.75667940  0.71364958    -0.15600
F1136       F  0.72751154  0.81736286  0.66911103    -0.13300
C1137       C  0.32167797  0.40302654  0.61456479     0.24700
C1138       C  0.31336175  0.38152565  0.64639732    -0.23400
C1139       C  0.26855535  0.33124279  0.65187821     0.19600
C1140       C  0.23331041  0.30321025  0.62633440     0.24700
C1141       C  0.24042697  0.32565896  0.59508610    -0.23300
C1142       C  0.28531259  0.37539708  0.58921789     0.19600
F1143       F  0.29198675  0.39859410  0.55948602    -0.13300
F1144       F  0.36412704  0.45146665  0.60809118    -0.15600
F1145       F  0.18899024  0.25612077  0.63292207    -0.15600
F1146       F  0.25732452  0.30992020  0.68233022    -0.13300
C1147       C  0.30689079  0.24622380  0.63961915     0.24700
C1148       C  0.31489264  0.24301696  0.60610698    -0.23400
C1149       C  0.36331162  0.28239323  0.59232703     0.19600
C1150       C  0.40387532  0.32203240  0.61225130     0.24700
C1151       C  0.39752669  0.32174178  0.64647993    -0.23300
C1152       C  0.34770737  0.28344026  0.65961182     0.19600
F1153       F  0.33790916  0.28070904  0.69229281    -0.13300
F1154       F  0.26110853  0.20894524  0.65384937    -0.15600
F1155       F  0.45053855  0.35803148  0.59838822    -0.15600
F1156       F  0.37290472  0.27979199  0.56002014    -0.13300
C1157       C  0.39199916  0.31985346  0.86324898     0.24700
C1158       C  0.38961313  0.30116155  0.83084225    -0.23400
C1159       C  0.34803853  0.25017237  0.82236935     0.19600
C1160       C  0.31058491  0.21856150  0.84578899     0.24700
C1161       C  0.31476550  0.23625099  0.87850542    -0.23300
C1162       C  0.35523047  0.28750077  0.88683688     0.19600
F1163       F  0.36149639  0.30474100  0.91839414    -0.13300
F1164       F  0.43018959  0.36951479  0.87233089    -0.15600
F1165       F  0.27316446  0.16810090  0.83745702    -0.15600
F1166       F  0.34426609  0.23018056  0.79167010    -0.13300
C1167       C  0.26523090  0.31708950  0.84348151     0.24700
C1168       C  0.28395708  0.31870156  0.81141502    -0.23400
C1169       C  0.25784651  0.27098824  0.79235793     0.19600
C1170       C  0.21338830  0.22525984  0.80411854     0.24700
C1171       C  0.19275591  0.22492240  0.83508995    -0.23300
C1172       C  0.22025422  0.27076733  0.85511980     0.19600
F1173       F  0.20040669  0.27211294  0.88501004    -0.13300
F1174       F  0.28867324  0.36083304  0.86310313    -0.15600
F1175       F  0.18749209  0.18245065  0.78388913    -0.15600
F1176       F  0.27437745  0.26794401  0.76168652    -0.13300
loop_ 
_geom_bond_atom_site_label_1 
_geom_bond_atom_site_label_2 
_geom_bond_distance 
_geom_bond_site_symmetry_2 
_ccdc_geom_bond_type 
O1          Zr13   2.442       .  S
O1            C3   1.287       .  A
O2          Zr39   2.426       .  S
O2            C3   1.284       .  A
C3          C570   1.486       .  S
O4          Zr16   2.531       .  S
O4            C6   1.297       .  A
O5          Zr40   2.390       .  S
O5            C6   1.270       .  A
C6          C510   1.513       .  S
O7          Zr16   2.533       .  S
O7            C9   1.304       .  A
O8          Zr39   2.368       .  S
O8            C9   1.275       .  A
C9          C580   1.513       .  S
O10         Zr13   2.476       .  S
O10          C12   1.293       .  A
O11         Zr40   2.410       .  S
O11          C12   1.283       .  A
C12         C520   1.486       .  S
Zr13         O14   2.439       .  S
Zr13         O15   2.439       .  S
Zr13         O19   2.282       .  S
Zr13         O20   2.358       .  S
Zr13         O43   2.376       .  S
Zr13         O45   2.382       .  S
O14          H57   0.989       .  S
O15          H56   0.991       .  S
O15          H60   0.990       .  S
Zr16         O17   2.437       .  S
Zr16         O18   2.437       .  S
Zr16         O19   2.282       .  S
Zr16         O20   2.390       .  S
Zr16         O44   2.399       .  S
Zr16         O46   2.404       .  S
O17          H58   0.989       .  S
O17          H61   0.991       .  S
O18          H51   0.991       .  S
O19         Zr39   2.251       .  S
O20         Zr40   2.391       .  S
O20          H47   0.960       .  S
O21         Zr33   2.568       .  S
O21          C23   1.311       .  A
O22         Zr40   2.349       .  S
O22          C23   1.274       .  A
C23         C530   1.512       .  S
O24         Zr36   2.440       .  S
O24          C26   1.285       .  A
O25         Zr39   2.425       .  S
O25          C26   1.284       .  A
C26         C550   1.488       .  S
O27         Zr36   2.472       .  S
O27          C29   1.293       .  A
O28         Zr40   2.414       .  S
O28          C29   1.284       .  A
C29         C543   1.487       .  S
O30         Zr33   2.522       .  S
O30          C32   1.298       .  A
O31         Zr39   2.379       .  S
O31          C32   1.269       .  A
C32         C563   1.505       .  S
Zr33         O34   2.440       .  S
Zr33         O35   2.436       .  S
Zr33         O42   2.299       .  S
Zr33         O41   2.341       .  S
Zr33         O45   2.398       .  S
Zr33         O43   2.400       .  S
O34          H54   0.990       .  S
O34          H59   0.991       .  S
O35          H55   0.989       .  S
Zr36         O37   2.439       .  S
Zr36         O38   2.435       .  S
Zr36         O42   2.290       .  S
Zr36         O41   2.370       .  S
Zr36         O46   2.375       .  S
Zr36         O44   2.388       .  S
O37          H53   0.989       .  S
O38          H52   0.991       .  S
O38          H62   0.989       .  S
Zr39         O42   2.264       .  S
Zr39         O44   2.388       .  S
Zr39         O45   2.396       .  S
Zr40         O41   2.387       .  S
Zr40         O43   2.392       .  S
Zr40         O46   2.384       .  S
O41          H49   0.959       .  S
O44          H48   0.969       .  S
O45          H50   0.971       .  S
O63         Zr75   2.540       .  S
O63          C65   1.306       .  A
O64        Zr101   2.359   1_455  S
O64          C65   1.272       .  A
C65         C490   1.512       .  S
O66         Zr78   2.456       .  S
O66          C68   1.289       .  A
O67        Zr102   2.412   1_655  S
O67          C68   1.283       .  A
C68         C450   1.478       .  S
O69         Zr78   2.438       .  S
O69          C71   1.285       .  A
O70        Zr101   2.414       .  S
O70          C71   1.281       .  A
C71         C500   1.479       .  S
O72         Zr75   2.532       .  S
O72          C74   1.297       .  A
O73        Zr102   2.391       .  S
O73          C74   1.271       .  A
C74         C460   1.514       .  S
Zr75         O76   2.438       .  S
Zr75         O77   2.439       .  S
Zr75         O81   2.280   1_455  S
Zr75        O105   2.309       .  S
Zr75         O82   2.389   1_455  S
Zr75        O107   2.395       .  S
O76         H119   0.990       .  S
O77         H118   0.992       .  S
O77         H122   0.990       .  S
Zr78         O79   2.441       .  S
Zr78         O80   2.437       .  S
Zr78         O81   2.280       .  S
Zr78         O82   2.361       .  S
Zr78        O106   2.377       .  S
Zr78        O108   2.381       .  S
O79         H120   0.991       .  S
O79         H123   0.990       .  S
O80         H113   0.990       .  S
O81        Zr101   2.251       .  S
O82        Zr102   2.394   1_655  S
O82         H109   0.961       .  S
O83         Zr95   2.482       .  S
O83          C85   1.294       .  A
O84        Zr102   2.416       .  S
O84          C85   1.283       .  A
C85         C430   1.490       .  S
O86         Zr98   2.523       .  S
O86          C88   1.299       .  A
O87        Zr101   2.377       .  S
O87          C88   1.269       .  A
C88         C470   1.506       .  S
O89         Zr98   2.553       .  S
O89          C91   1.308       .  A
O90        Zr102   2.360   1_655  S
O90          C91   1.275       .  A
C91         C443   1.511       .  S
O92         Zr95   2.454       .  S
O92          C94   1.288       .  A
O93        Zr101   2.397   1_455  S
O93          C94   1.279       .  A
C94         C483   1.481       .  S
Zr95         O96   2.445       .  S
Zr95         O97   2.437       .  S
Zr95        O104   2.284       .  S
Zr95        O105   2.286       .  S
Zr95        O103   2.368       .  S
Zr95        O107   2.385       .  S
O96         H116   0.990       .  S
O96         H121   0.991       .  S
O97         H117   0.990       .  S
Zr98         O99   2.437       .  S
Zr98        O100   2.436       .  S
Zr98        O104   2.296   1_655  S
Zr98        O103   2.342   1_655  S
Zr98        O108   2.401       .  S
Zr98        O106   2.398       .  S
O99         H115   0.991       .  S
O100        H114   0.990       .  S
O100        H124   0.991       .  S
Zr101       O104   2.265   1_655  S
Zr101       O106   2.391       .  S
Zr101       O107   2.393   1_655  S
Zr102       O105   2.283       .  S
Zr102       O103   2.387       .  S
Zr102       O108   2.391   1_455  S
O103        H111   0.958       .  S
O106        H110   0.964       .  S
O107        H112   0.969       .  S
O125       Zr137   2.444       .  S
O125        C127   1.286       .  A
O126       Zr163   2.384       .  S
O126        C127   1.275       .  A
C127        C410   1.478       .  S
O128       Zr140   2.482       .  S
O128        C130   1.293       .  A
O129       Zr164   2.429   1_545  S
O129        C130   1.287       .  A
C130        C373   1.503       .  S
O131       Zr140   2.446       .  S
O131        C133   1.288       .  A
O132       Zr163   2.435   1_545  S
O132        C133   1.288       .  A
C133        C423   1.501       .  S
O134       Zr137   2.457       .  S
O134        C136   1.289       .  A
O135       Zr164   2.389       .  S
O135        C136   1.279       .  A
C136        C383   1.474       .  S
Zr137       O138   2.439       .  S
Zr137       O139   2.436       .  S
Zr137       O143   2.284       .  S
Zr137       O144   2.369       .  S
Zr137       O167   2.384       .  S
Zr137       O169   2.383       .  S
O138        H181   0.990       .  S
O139        H180   0.990       .  S
O139        H184   0.990       .  S
Zr140       O141   2.441       .  S
Zr140       O142   2.435       .  S
Zr140       O143   2.284   1_545  S
Zr140       O144   2.357   1_545  S
Zr140       O168   2.384       .  S
Zr140       O170   2.382       .  S
O141        H182   0.990       .  S
O141        H185   0.991       .  S
O142        H175   0.991       .  S
O143       Zr163   2.260       .  S
O144       Zr164   2.388       .  S
O144        H171   0.966       .  S
O145       Zr157   2.490       .  S
O145        C147   1.296       .  A
O146       Zr164   2.415       .  S
O146        C147   1.285       .  A
C147        C350   1.501       .  S
O148       Zr160   2.456       .  S
O148        C150   1.289       .  A
O149       Zr163   2.388   1_545  S
O149        C150   1.279       .  A
C150        C390   1.475       .  S
O151       Zr160   2.478       .  S
O151        C153   1.293       .  A
O152       Zr164   2.396   1_545  S
O152        C153   1.281       .  A
C153        C363   1.485       .  S
O154       Zr157   2.459       .  S
O154        C156   1.290       .  A
O155       Zr163   2.423       .  S
O155        C156   1.286       .  A
C156        C400   1.501       .  S
Zr157       O158   2.440       .  S
Zr157       O159   2.435       .  S
Zr157       O166   2.284   1_565  S
Zr157       O165   2.354   1_565  S
Zr157       O169   2.381       .  S
Zr157       O167   2.381       .  S
O158        H178   0.990       .  S
O158        H183   0.991       .  S
O159        H179   0.990       .  S
Zr160       O161   2.438       .  S
Zr160       O162   2.436       .  S
Zr160       O166   2.283       .  S
Zr160       O165   2.367       .  S
Zr160       O170   2.388       .  S
Zr160       O168   2.387       .  S
O161        H177   0.990       .  S
O162        H176   0.990       .  S
O162        H186   0.991       .  S
Zr163       O166   2.260   1_565  S
Zr163       O168   2.392   1_565  S
Zr163       O169   2.394       .  S
Zr164       O165   2.391   1_565  S
Zr164       O167   2.396       .  S
Zr164       O170   2.394   1_565  S
O165        H173   0.964       .  S
O168        H172   0.972       .  S
O169        H174   0.972       .  S
C187        C271   1.498       .  S
C187        C188   1.432       .  A
C187        C192   1.430       .  A
C188        C189   1.418       .  A
C188        H193   1.084       .  S
C189        C583   1.488       .  S
C189        C190   1.383       .  A
C190        C191   1.383       .  A
C190        H194   1.088       .  S
C191        C493   1.487       .  S
C191        C192   1.417       .  A
C192        H195   1.084   1_455  S
C196        C270   1.470       .  S
C196        C197   1.404       .  A
C196        C201   1.407       .  A
C197        C198   1.400       .  A
C197        H202   1.078       .  S
C198        C480   1.469       .  S
C198        C199   1.393       .  A
C199        C200   1.394       .  A
C199        H203   1.087       .  S
C200        C553   1.472       .  S
C200        C201   1.405       .  A
C201        H204   1.080       .  S
C205        C307   1.507       .  S
C205        C206   1.432       .  A
C205        C210   1.420       .  A
C206        C207   1.402       .  A
C206        H211   1.083       .  S
C207        C403   1.480       .  S
C207        C208   1.378       .  A
C208        C209   1.388       .  A
C208        H212   1.088       .  S
C209        C433   1.473       .  S
C209        C210   1.418       .  A
C210        H213   1.082       .  S
C214        C305   1.495       .  S
C214        C215   1.409       .  A
C214        C219   1.422       .  A
C215        C216   1.404       .  A
C215        H220   1.083       .  S
C216        C360   1.469       .  S
C216        C217   1.391       .  A
C217        C218   1.391       .  A
C217        H221   1.087       .  S
C218        C473   1.489       .  S
C218        C219   1.420       .  A
C219        H222   1.076       .  S
C223        C273   1.497       .  S
C223        C224   1.413       .  A
C223        C228   1.428       .  A
C224        C225   1.413       .  A
C224        H229   1.082       .  S
C225        C503   1.467       .  S
C225        C226   1.392       .  A
C226        C227   1.382       .  A
C226        H230   1.087       .  S
C227        C370   1.479       .  S
C227        C228   1.399       .  A
C228        H231   1.083       .  S
C232        C272   1.502       .  S
C232        C233   1.418       .  A
C232        C237   1.427       .  A
C233        C234   1.417       .  A
C233        H238   1.083       .  S
C234        C573   1.473       .  S
C234        C235   1.392       .  A
C235        C236   1.382       .  A
C235        H239   1.088       .  S
C236        C420   1.479       .  S
C236        C237   1.399       .  A
C237        H240   1.083       .  S
C241        C303   1.492       .  S
C241        C242   1.427       .  A
C241        C246   1.405       .  A
C242        C243   1.426       .  A
C242        H247   1.078       .  S
C243        C463   1.494       .  S
C243        C244   1.390       .  A
C244        C245   1.389       .  A
C244        H248   1.087       .  S
C245        C413   1.460       .  S
C245        C246   1.396       .  A
C246        H249   1.084       .  S
C250        C306   1.487       .  S
C250        C251   1.406       .  A
C250        C255   1.421       .  A
C251        C252   1.400       .  A
C251        H256   1.084       .  S
C252        C393   1.464       .  S
C252        C253   1.390       .  A
C253        C254   1.393       .  A
C253        H257   1.087       .  S
C254        C560   1.487       .  S
C254        C255   1.421       .  A
C255        H258   1.078       .  S
O259       Zr295   2.464       .  S
O259        C270   1.298       .  A
O260       Zr294   2.604   1_445  S
O260        C271   1.326       .  A
O261       Zr267   2.524       .  S
O261        C272   1.305       .  A
O262       Zr267   2.519   1_655  S
O262        C273   1.305       .  A
O263       Zr885   2.374   1_545  S
O263        C273   1.280       .  A
O264       Zr884   2.392   1_545  S
O264        C272   1.284       .  A
O265       Zr267   2.328       .  S
O265        C271   1.272       .  A
O266       Zr855   2.435   1_554  S
O266        C270   1.292       .  A
Zr267       O854   2.435       .  S
Zr267       O268   2.354   1_455  S
Zr267       O275   2.353       .  S
Zr267       O857   2.335       .  S
Zr267       O865   2.340   1_455  S
O268       Zr294   2.345   1_545  S
O268       Zr885   2.336   1_545  S
O269       Zr295   2.372       .  S
O269       Zr296   2.326   1_544  S
O269       Zr855   2.335   1_554  S
H274        O275   0.964       .  S
O275       Zr294   2.343   1_445  S
O275       Zr884   2.337   1_545  S
H276        O277   0.964       .  S
O277       Zr295   2.373   1_655  S
O277       Zr297   2.335   1_544  S
O277       Zr855   2.340   1_654  S
O278       Zr294   2.450       .  S
O278        C301   1.295       .  A
O279       Zr295   2.606   1_665  S
O279        C302   1.327       .  A
O280       Zr884   2.442       .  S
O280        C303   1.293       .  A
O281       Zr885   2.448       .  S
O281        C304   1.295       .  A
O282       Zr297   2.451   1_544  S
O282        C305   1.294       .  A
O283       Zr296   2.436   1_544  S
O283        C306   1.291       .  A
O284       Zr298   2.536   1_455  S
O284        C307   1.308       .  A
O285       Zr298   2.533       .  S
O285        C308   1.308       .  A
O286       Zr296   2.393   1_554  S
O286        C307   1.284       .  A
O287       Zr297   2.387   1_554  S
O287        C308   1.283       .  A
O288       Zr294   2.488   1_455  S
O288        C303   1.300       .  A
O289       Zr295   2.487       .  S
O289        C306   1.301       .  A
O290       Zr295   2.497   1_655  S
O290        C305   1.303       .  A
O291       Zr294   2.493       .  S
O291        C304   1.301       .  A
O292       Zr886   2.437       .  S
O292        C301   1.292       .  A
O293       Zr298   2.317       .  S
O293        C302   1.271       .  A
Zr294       O300   2.374   1_655  S
Zr294       O312   2.380       .  S
Zr295       O299   2.342   1_445  S
Zr295       O310   2.340   1_545  S
Zr296       O852   2.392   1_565  S
Zr296       O868   2.442       .  S
Zr296       O310   2.336   1_556  S
Zr296       O863   2.337   1_565  S
Zr296       O888   2.323       .  S
Zr297       O851   2.374   1_565  S
Zr297       O869   2.448       .  S
Zr297       O299   2.328   1_556  S
Zr297       O856   2.336   1_565  S
Zr297       O900   2.332       .  S
Zr298       O880   2.437   1_554  S
Zr298       O299   2.349       .  S
Zr298       O310   2.350   1_655  S
Zr298       O888   2.340   1_654  S
Zr298       O900   2.338   1_554  S
O300       Zr884   2.323       .  S
O300       Zr886   2.340   1_455  S
C301        C340   1.462       .  S
C302        C331   1.495       .  S
C304        C322   1.492       .  S
C308        C313   1.506       .  S
H309        O310   0.964       .  S
H311        O312   0.964       .  S
O312       Zr885   2.332       .  S
O312       Zr886   2.338       .  S
C313        C314   1.419       .  A
C313        C318   1.430       .  A
C314        C315   1.417       .  A
C314        H319   1.081       .  S
C315        C540   1.473       .  S
C315        C316   1.389       .  A
C316        C317   1.379       .  A
C316        H320   1.088       .  S
C317        C353   1.480       .  S
C317        C318   1.402       .  A
C318        H321   1.082       .  S
C322        C323   1.404       .  A
C322        C327   1.428       .  A
C323        C324   1.396       .  A
C323        H328   1.084       .  S
C324        C380   1.460       .  S
C324        C325   1.390       .  A
C325        C326   1.391       .  A
C325        H329   1.087       .  S
C326        C513   1.494       .  S
C326        C327   1.426       .  A
C327        H330   1.080       .  S
C331        C332   1.433       .  A
C331        C336   1.433       .  A
C332        C333   1.419       .  A
C332        H337   1.084       .  S
C333        C533   1.485       .  S
C333        C334   1.379       .  A
C334        C335   1.379       .  A
C334        H338   1.088       .  S
C335        C440   1.484       .  S
C335        C336   1.417       .  A
C336        H339   1.084   1_655  S
C340        C341   1.406       .  A
C340        C345   1.404       .  A
C341        C342   1.402       .  A
C341        H346   1.081       .  S
C342        C523   1.471       .  S
C342        C343   1.393       .  A
C343        C344   1.392       .  A
C343        H347   1.086       .  S
C344        C453   1.467       .  S
C344        C345   1.400       .  A
C345        H348   1.080       .  S
C349        C350   1.416       .  A
C349        C354   1.401       .  A
C349        F356   1.358       .  S
C350        C351   1.413       .  A
C351        C352   1.403       .  A
C351        F358   1.356       .  S
C352        C353   1.404       .  A
C352        F357   1.357       .  S
C353        C354   1.404       .  A
C354        F355   1.358       .  S
C359        C360   1.401       .  A
C359        C364   1.401       .  A
C359        F366   1.358       .  S
C360        C361   1.404       .  A
C361        C362   1.395       .  A
C361        F368   1.359       .  S
C362        C363   1.410       .  A
C362        F367   1.358       .  S
C363        C364   1.413       .  A
C364        F365   1.357       .  S
C369        C370   1.403       .  A
C369        C374   1.402       .  A
C369        F376   1.358       .  S
C370        C371   1.404       .  A
C371        C372   1.401       .  A
C371        F378   1.359       .  S
C372        C373   1.416       .  A
C372        F377   1.357       .  S
C373        C374   1.415       .  A
C374        F375   1.356       .  S
C379        C380   1.403       .  A
C379        C384   1.390       .  A
C379        F386   1.359       .  S
C380        C381   1.399       .  A
C381        C382   1.396       .  A
C381        F388   1.358       .  S
C382        C383   1.413       .  A
C382        F387   1.358       .  S
C383        C384   1.408       .  A
C384        F385   1.358       .  S
C389        C390   1.411       .  A
C389        C394   1.400       .  A
C389        F396   1.357       .  S
C390        C391   1.407       .  A
C391        C392   1.391       .  A
C391        F398   1.359       .  S
C392        C393   1.404       .  A
C392        F397   1.359       .  S
C393        C394   1.400       .  A
C394        F395   1.357       .  S
C399        C400   1.415       .  A
C399        C404   1.402       .  A
C399        F406   1.357       .  S
C400        C401   1.413       .  A
C401        C402   1.402       .  A
C401        F408   1.357       .  S
C402        C403   1.405       .  A
C402        F407   1.358       .  S
C403        C404   1.405       .  A
C404        F405   1.358       .  S
C409        C410   1.412       .  A
C409        C414   1.390       .  A
C409        F416   1.359       .  S
C410        C411   1.411       .  A
C411        C412   1.396       .  A
C411        F418   1.357       .  S
C412        C413   1.400       .  A
C412        F417   1.357       .  S
C413        C414   1.401       .  A
C414        F415   1.359       .  S
C419        C420   1.402       .  A
C419        C424   1.402       .  A
C419        F426   1.358       .  S
C420        C421   1.404       .  A
C421        C422   1.400       .  A
C421        F428   1.358       .  S
C422        C423   1.413       .  A
C422        F427   1.357       .  S
C423        C424   1.417       .  A
C424        F425   1.357       .  S
C429        C430   1.407       .  A
C429        C434   1.400       .  A
C429        F436   1.358       .  S
C430        C431   1.416       .  A
C431        C432   1.401       .  A
C431        F438   1.357       .  S
C432        C433   1.400       .  A
C432        F437   1.358       .  S
C433        C434   1.411       .  A
C434        F435   1.359       .  S
C439        C440   1.397       .  A
C439        C444   1.398       .  A
C439        F446   1.359       .  S
C440        C441   1.415       .  A
C441        C442   1.413       .  A
C441        F448   1.357       .  S
C442        C443   1.409       .  A
C442        F447   1.357       .  S
C443        C444   1.426       .  A
C444        F445   1.358       .  S
C449        C450   1.407       .  A
C449        C454   1.396       .  A
C449        F456   1.358       .  S
C450        C451   1.410       .  A
C451        C452   1.396       .  A
C451        F458   1.357       .  S
C452        C453   1.401       .  A
C452        F457   1.358       .  S
C453        C454   1.405       .  A
C454        F455   1.358       .  S
C459        C460   1.421       .  A
C459        C464   1.399       .  A
C459        F466   1.358       .  S
C460        C461   1.411       .  A
C461        C462   1.417       .  A
C461        F468   1.357       .  S
C462        C463   1.416       .  A
C462        F467   1.357       .  S
C463        C464   1.400       .  A
C464        F465   1.359       .  S
C469        C470   1.408       .  A
C469        C474   1.415       .  A
C469        F476   1.357       .  S
C470        C471   1.421       .  A
C471        C472   1.395       .  A
C471        F478   1.359       .  S
C472        C473   1.399       .  A
C472        F477   1.359       .  S
C473        C474   1.415       .  A
C474        F475   1.357       .  S
C479        C480   1.402       .  A
C479        C484   1.400       .  A
C479        F486   1.357       .  S
C480        C481   1.404       .  A
C481        C482   1.394       .  A
C481        F488   1.359       .  S
C482        C483   1.410       .  A
C482        F487   1.358       .  S
C483        C484   1.409       .  A
C484        F485   1.357       .  S
C489        C490   1.428       .  A
C489        C494   1.399       .  A
C489        F496   1.359   1_455  S
C490        C491   1.408       .  A
C491        C492   1.412       .  A
C491        F498   1.357       .  S
C492        C493   1.414       .  A
C492        F497   1.357       .  S
C493        C494   1.396       .  A
C494        F495   1.359   1_455  S
C499        C500   1.413       .  A
C499        C504   1.397       .  A
C499        F506   1.357       .  S
C500        C501   1.405       .  A
C501        C502   1.396       .  A
C501        F508   1.358       .  S
C502        C503   1.410       .  A
C502        F507   1.359       .  S
C503        C504   1.398       .  A
C504        F505   1.357       .  S
C509        C510   1.421       .  A
C509        C514   1.399       .  A
C509        F516   1.358       .  S
C510        C511   1.411       .  A
C511        C512   1.416       .  A
C511        F518   1.357       .  S
C512        C513   1.415       .  A
C512        F517   1.357       .  S
C513        C514   1.401       .  A
C514        F515   1.359       .  S
C519        C520   1.410       .  A
C519        C524   1.397       .  A
C519        F526   1.358       .  S
C520        C521   1.411       .  A
C521        C522   1.399       .  A
C521        F528   1.357       .  S
C522        C523   1.403       .  A
C522        F527   1.358       .  S
C523        C524   1.403       .  A
C524        F525   1.359       .  S
C529        C530   1.409       .  A
C529        C534   1.415       .  A
C529        F536   1.356       .  S
C530        C531   1.426       .  A
C531        C532   1.397       .  A
C531        F538   1.359       .  S
C532        C533   1.398       .  A
C532        F537   1.359       .  S
C533        C534   1.415       .  A
C534        F535   1.357       .  S
C539        C540   1.401       .  A
C539        C544   1.401       .  A
C539        F546   1.357       .  S
C540        C541   1.409       .  A
C541        C542   1.397       .  A
C541        F548   1.359       .  S
C542        C543   1.408       .  A
C542        F547   1.358       .  S
C543        C544   1.415       .  A
C544        F545   1.358       .  S
C549        C550   1.413       .  A
C549        C554   1.402       .  A
C549        F556   1.357       .  S
C550        C551   1.408       .  A
C551        C552   1.396       .  A
C551        F558   1.358       .  S
C552        C553   1.404       .  A
C552        F557   1.359       .  S
C553        C554   1.403       .  A
C554        F555   1.358       .  S
C559        C560   1.398       .  A
C559        C564   1.394       .  A
C559        F566   1.359       .  S
C560        C561   1.415       .  A
C561        C562   1.415       .  A
C561        F568   1.357       .  S
C562        C563   1.409       .  A
C562        F567   1.357       .  S
C563        C564   1.420       .  A
C564        F565   1.358       .  S
C569        C570   1.414       .  A
C569        C574   1.400       .  A
C569        F576   1.357       .  S
C570        C571   1.406       .  A
C571        C572   1.398       .  A
C571        F578   1.358       .  S
C572        C573   1.410       .  A
C572        F577   1.359       .  S
C573        C574   1.399       .  A
C574        F575   1.357       .  S
C579        C580   1.409       .  A
C579        C584   1.413       .  A
C579        F586   1.357       .  S
C580        C581   1.427       .  A
C581        C582   1.399       .  A
C581        F588   1.358       .  S
C582        C583   1.396       .  A
C582        F587   1.358       .  S
C583        C584   1.415       .  A
C584        F585   1.357       .  S
O589       Zr601   2.442       .  S
O589        C591   1.287       .  A
O590       Zr627   2.426       .  S
O590        C591   1.284       .  A
C591       C1158   1.486       .  S
O592       Zr604   2.531       .  S
O592        C594   1.297       .  A
O593       Zr628   2.390       .  S
O593        C594   1.270       .  A
C594       C1098   1.513       .  S
O595       Zr604   2.533       .  S
O595        C597   1.304       .  A
O596       Zr627   2.368       .  S
O596        C597   1.275       .  A
C597       C1168   1.513       .  S
O598       Zr601   2.476       .  S
O598        C600   1.293       .  A
O599       Zr628   2.410       .  S
O599        C600   1.283       .  A
C600       C1108   1.486       .  S
Zr601       O602   2.439       .  S
Zr601       O603   2.439       .  S
Zr601       O607   2.282       .  S
Zr601       O608   2.358       .  S
Zr601       O631   2.376       .  S
Zr601       O633   2.382       .  S
O602        H645   0.989       .  S
O603        H644   0.991       .  S
O603        H648   0.990       .  S
Zr604       O605   2.437       .  S
Zr604       O606   2.437       .  S
Zr604       O607   2.282       .  S
Zr604       O608   2.390       .  S
Zr604       O632   2.399       .  S
Zr604       O634   2.404       .  S
O605        H646   0.989       .  S
O605        H649   0.991       .  S
O606        H639   0.991       .  S
O607       Zr627   2.251       .  S
O608       Zr628   2.391       .  S
O608        H635   0.960       .  S
O609       Zr621   2.568       .  S
O609        C611   1.311       .  A
O610       Zr628   2.349       .  S
O610        C611   1.274       .  A
C611       C1118   1.512       .  S
O612       Zr624   2.440       .  S
O612        C614   1.285       .  A
O613       Zr627   2.425       .  S
O613        C614   1.284       .  A
C614       C1138   1.488       .  S
O615       Zr624   2.472       .  S
O615        C617   1.293       .  A
O616       Zr628   2.414       .  S
O616        C617   1.284       .  A
C617       C1131   1.487       .  S
O618       Zr621   2.522       .  S
O618        C620   1.298       .  A
O619       Zr627   2.379       .  S
O619        C620   1.269       .  A
C620       C1151   1.505       .  S
Zr621       O622   2.440       .  S
Zr621       O623   2.436       .  S
Zr621       O630   2.299       .  S
Zr621       O629   2.341       .  S
Zr621       O633   2.398       .  S
Zr621       O631   2.400       .  S
O622        H642   0.990       .  S
O622        H647   0.991       .  S
O623        H643   0.989       .  S
Zr624       O625   2.439       .  S
Zr624       O626   2.435       .  S
Zr624       O630   2.290       .  S
Zr624       O629   2.370       .  S
Zr624       O634   2.375       .  S
Zr624       O632   2.388       .  S
O625        H641   0.989       .  S
O626        H640   0.991       .  S
O626        H650   0.989       .  S
Zr627       O630   2.264       .  S
Zr627       O632   2.388       .  S
Zr627       O633   2.396       .  S
Zr628       O629   2.387       .  S
Zr628       O631   2.392       .  S
Zr628       O634   2.384       .  S
O629        H637   0.959       .  S
O632        H636   0.969       .  S
O633        H638   0.971       .  S
O651       Zr663   2.540       .  S
O651        C653   1.305       .  A
O652       Zr689   2.359   1_455  S
O652        C653   1.272       .  A
C653       C1078   1.512       .  S
O654       Zr666   2.456       .  S
O654        C656   1.289       .  A
O655       Zr690   2.412   1_655  S
O655        C656   1.283       .  A
C656       C1038   1.478       .  S
O657       Zr666   2.438       .  S
O657        C659   1.285       .  A
O658       Zr689   2.414       .  S
O658        C659   1.281       .  A
C659       C1088   1.479       .  S
O660       Zr663   2.532       .  S
O660        C662   1.297       .  A
O661       Zr690   2.391       .  S
O661        C662   1.271       .  A
C662       C1048   1.514       .  S
Zr663       O664   2.438       .  S
Zr663       O665   2.439       .  S
Zr663       O669   2.280   1_455  S
Zr663       O693   2.309       .  S
Zr663       O670   2.389   1_455  S
Zr663       O695   2.395       .  S
O664        H707   0.990       .  S
O665        H706   0.992       .  S
O665        H710   0.990       .  S
Zr666       O667   2.441       .  S
Zr666       O668   2.437       .  S
Zr666       O669   2.280       .  S
Zr666       O670   2.361       .  S
Zr666       O694   2.377       .  S
Zr666       O696   2.381       .  S
O667        H708   0.991       .  S
O667        H711   0.990       .  S
O668        H701   0.990       .  S
O669       Zr689   2.251       .  S
O670       Zr690   2.394   1_655  S
O670        H697   0.961       .  S
O671       Zr683   2.482       .  S
O671        C673   1.294       .  A
O672       Zr690   2.416       .  S
O672        C673   1.283       .  A
C673       C1018   1.490       .  S
O674       Zr686   2.523       .  S
O674        C676   1.299       .  A
O675       Zr689   2.377       .  S
O675        C676   1.269       .  A
C676       C1058   1.506       .  S
O677       Zr686   2.553       .  S
O677        C679   1.308       .  A
O678       Zr690   2.360   1_655  S
O678        C679   1.275       .  A
C679       C1031   1.511       .  S
O680       Zr683   2.454       .  S
O680        C682   1.288       .  A
O681       Zr689   2.397   1_455  S
O681        C682   1.279       .  A
C682       C1071   1.481       .  S
Zr683       O684   2.445       .  S
Zr683       O685   2.437       .  S
Zr683       O692   2.284       .  S
Zr683       O693   2.287       .  S
Zr683       O691   2.368       .  S
Zr683       O695   2.385       .  S
O684        H704   0.990       .  S
O684        H709   0.991       .  S
O685        H705   0.990       .  S
Zr686       O687   2.437       .  S
Zr686       O688   2.436       .  S
Zr686       O692   2.296   1_655  S
Zr686       O691   2.342   1_655  S
Zr686       O696   2.401       .  S
Zr686       O694   2.398       .  S
O687        H703   0.991       .  S
O688        H702   0.990       .  S
O688        H712   0.991       .  S
Zr689       O692   2.265   1_655  S
Zr689       O694   2.391       .  S
Zr689       O695   2.393   1_655  S
Zr690       O693   2.283       .  S
Zr690       O691   2.387       .  S
Zr690       O696   2.391   1_455  S
O691        H699   0.958       .  S
O694        H698   0.964       .  S
O695        H700   0.969       .  S
O713       Zr725   2.444       .  S
O713        C715   1.286       .  A
O714       Zr751   2.385       .  S
O714        C715   1.275       .  A
C715        C998   1.478       .  S
O716       Zr728   2.482       .  S
O716        C718   1.293       .  A
O717       Zr752   2.429   1_545  S
O717        C718   1.287       .  A
C718        C961   1.503       .  S
O719       Zr728   2.446       .  S
O719        C721   1.288       .  A
O720       Zr751   2.435   1_545  S
O720        C721   1.288       .  A
C721       C1011   1.501       .  S
O722       Zr725   2.457       .  S
O722        C724   1.289       .  A
O723       Zr752   2.389       .  S
O723        C724   1.279       .  A
C724        C971   1.474       .  S
Zr725       O726   2.439       .  S
Zr725       O727   2.436       .  S
Zr725       O731   2.284       .  S
Zr725       O732   2.369       .  S
Zr725       O755   2.384       .  S
Zr725       O757   2.383       .  S
O726        H769   0.990       .  S
O727        H768   0.990       .  S
O727        H772   0.990       .  S
Zr728       O729   2.441       .  S
Zr728       O730   2.435       .  S
Zr728       O731   2.284   1_545  S
Zr728       O732   2.357   1_545  S
Zr728       O756   2.384       .  S
Zr728       O758   2.382       .  S
O729        H770   0.990       .  S
O729        H773   0.991       .  S
O730        H763   0.991       .  S
O731       Zr751   2.260       .  S
O732       Zr752   2.388       .  S
O732        H759   0.966       .  S
O733       Zr745   2.490       .  S
O733        C735   1.296       .  A
O734       Zr752   2.415       .  S
O734        C735   1.285       .  A
C735        C938   1.501       .  S
O736       Zr748   2.456       .  S
O736        C738   1.289       .  A
O737       Zr751   2.388   1_545  S
O737        C738   1.279       .  A
C738        C978   1.475       .  S
O739       Zr748   2.478       .  S
O739        C741   1.293       .  A
O740       Zr752   2.396   1_545  S
O740        C741   1.281       .  A
C741        C951   1.485       .  S
O742       Zr745   2.459       .  S
O742        C744   1.290       .  A
O743       Zr751   2.423       .  S
O743        C744   1.286       .  A
C744        C988   1.501       .  S
Zr745       O746   2.440       .  S
Zr745       O747   2.435       .  S
Zr745       O754   2.284   1_565  S
Zr745       O753   2.354   1_565  S
Zr745       O757   2.381       .  S
Zr745       O755   2.381       .  S
O746        H766   0.990       .  S
O746        H771   0.991       .  S
O747        H767   0.990       .  S
Zr748       O749   2.438       .  S
Zr748       O750   2.436       .  S
Zr748       O754   2.283       .  S
Zr748       O753   2.367       .  S
Zr748       O758   2.388       .  S
Zr748       O756   2.387       .  S
O749        H765   0.990       .  S
O750        H764   0.990       .  S
O750        H774   0.991       .  S
Zr751       O754   2.260   1_565  S
Zr751       O756   2.392   1_565  S
Zr751       O757   2.394       .  S
Zr752       O753   2.391   1_565  S
Zr752       O755   2.396       .  S
Zr752       O758   2.394   1_565  S
O753        H761   0.964       .  S
O756        H760   0.973       .  S
O757        H762   0.972       .  S
C775        C859   1.498       .  S
C775        C776   1.432       .  A
C775        C780   1.431       .  A
C776        C777   1.418       .  A
C776        H781   1.084       .  S
C777       C1171   1.488       .  S
C777        C778   1.383       .  A
C778        C779   1.383       .  A
C778        H782   1.088       .  S
C779       C1081   1.487       .  S
C779        C780   1.417       .  A
C780        H783   1.084   1_455  S
C784        C858   1.470       .  S
C784        C785   1.404       .  A
C784        C789   1.407       .  A
C785        C786   1.400       .  A
C785        H790   1.078       .  S
C786       C1068   1.469       .  S
C786        C787   1.393       .  A
C787        C788   1.394       .  A
C787        H791   1.087       .  S
C788       C1141   1.472       .  S
C788        C789   1.405       .  A
C789        H792   1.080       .  S
C793        C895   1.507       .  S
C793        C794   1.432       .  A
C793        C798   1.420       .  A
C794        C795   1.402       .  A
C794        H799   1.083       .  S
C795        C991   1.480       .  S
C795        C796   1.378       .  A
C796        C797   1.388       .  A
C796        H800   1.088       .  S
C797       C1021   1.473       .  S
C797        C798   1.418       .  A
C798        H801   1.082       .  S
C802        C893   1.495       .  S
C802        C803   1.409       .  A
C802        C807   1.422       .  A
C803        C804   1.404       .  A
C803        H808   1.083       .  S
C804        C948   1.469       .  S
C804        C805   1.391       .  A
C805        C806   1.391       .  A
C805        H809   1.087       .  S
C806       C1061   1.489       .  S
C806        C807   1.420       .  A
C807        H810   1.076       .  S
C811        C861   1.497       .  S
C811        C812   1.413       .  A
C811        C816   1.428       .  A
C812        C813   1.413       .  A
C812        H817   1.082       .  S
C813       C1091   1.467       .  S
C813        C814   1.392       .  A
C814        C815   1.382       .  A
C814        H818   1.087       .  S
C815        C958   1.479       .  S
C815        C816   1.399       .  A
C816        H819   1.083       .  S
C820        C860   1.502       .  S
C820        C821   1.418       .  A
C820        C825   1.427       .  A
C821        C822   1.417       .  A
C821        H826   1.083       .  S
C822       C1161   1.473       .  S
C822        C823   1.392       .  A
C823        C824   1.382       .  A
C823        H827   1.088       .  S
C824       C1008   1.479       .  S
C824        C825   1.399       .  A
C825        H828   1.083       .  S
C829        C891   1.492       .  S
C829        C830   1.427       .  A
C829        C834   1.405       .  A
C830        C831   1.426       .  A
C830        H835   1.078       .  S
C831       C1051   1.494       .  S
C831        C832   1.390       .  A
C832        C833   1.389       .  A
C832        H836   1.087       .  S
C833       C1001   1.460       .  S
C833        C834   1.396       .  A
C834        H837   1.084       .  S
C838        C894   1.487       .  S
C838        C839   1.406       .  A
C838        C843   1.421       .  A
C839        C840   1.400       .  A
C839        H844   1.084       .  S
C840        C981   1.464       .  S
C840        C841   1.390       .  A
C841        C842   1.393       .  A
C841        H845   1.087       .  S
C842       C1148   1.487       .  S
C842        C843   1.421       .  A
C843        H846   1.078       .  S
O847       Zr883   2.464       .  S
O847        C858   1.298       .  A
O848       Zr882   2.604   1_445  S
O848        C859   1.326       .  A
O849       Zr855   2.524       .  S
O849        C860   1.306       .  A
O850       Zr855   2.519   1_655  S
O850        C861   1.305       .  A
O851        C861   1.280       .  A
O852        C860   1.284       .  A
O853       Zr855   2.328       .  S
O853        C859   1.272       .  A
O854        C858   1.292       .  A
Zr855       O856   2.354   1_455  S
Zr855       O863   2.353       .  S
O856       Zr882   2.345   1_545  S
O857       Zr883   2.372       .  S
O857       Zr884   2.326   1_545  S
H862        O863   0.964       .  S
O863       Zr882   2.343   1_445  S
H864        O865   0.964       .  S
O865       Zr883   2.373   1_655  S
O865       Zr885   2.335   1_545  S
O866       Zr882   2.450       .  S
O866        C889   1.295       .  A
O867       Zr883   2.606   1_665  S
O867        C890   1.327       .  A
O868        C891   1.293       .  A
O869        C892   1.295       .  A
O870       Zr885   2.451   1_545  S
O870        C893   1.294       .  A
O871       Zr884   2.436   1_545  S
O871        C894   1.291       .  A
O872       Zr886   2.536   1_455  S
O872        C895   1.308       .  A
O873       Zr886   2.533       .  S
O873        C896   1.308       .  A
O874       Zr884   2.393       .  S
O874        C895   1.284       .  A
O875       Zr885   2.387       .  S
O875        C896   1.283       .  A
O876       Zr882   2.488   1_455  S
O876        C891   1.300       .  A
O877       Zr883   2.487       .  S
O877        C894   1.301       .  A
O878       Zr883   2.497   1_655  S
O878        C893   1.303       .  A
O879       Zr882   2.493       .  S
O879        C892   1.301       .  A
O880        C889   1.293       .  A
O881       Zr886   2.317       .  S
O881        C890   1.271       .  A
Zr882       O888   2.374   1_655  S
Zr882       O900   2.380       .  S
Zr883       O887   2.342   1_445  S
Zr883       O898   2.340   1_545  S
Zr884       O898   2.336       .  S
Zr885       O887   2.328       .  S
Zr886       O887   2.349       .  S
Zr886       O898   2.350   1_655  S
C889        C928   1.462       .  S
C890        C919   1.495       .  S
C892        C910   1.492       .  S
C896        C901   1.506       .  S
H897        O898   0.964       .  S
H899        O900   0.964       .  S
C901        C902   1.419       .  A
C901        C906   1.430       .  A
C902        C903   1.417       .  A
C902        H907   1.081       .  S
C903       C1128   1.473       .  S
C903        C904   1.389       .  A
C904        C905   1.379       .  A
C904        H908   1.088       .  S
C905        C941   1.480       .  S
C905        C906   1.402       .  A
C906        H909   1.082       .  S
C910        C911   1.404       .  A
C910        C915   1.428       .  A
C911        C912   1.396       .  A
C911        H916   1.084       .  S
C912        C968   1.460       .  S
C912        C913   1.390       .  A
C913        C914   1.391       .  A
C913        H917   1.087       .  S
C914       C1101   1.494       .  S
C914        C915   1.426       .  A
C915        H918   1.080       .  S
C919        C920   1.433       .  A
C919        C924   1.433       .  A
C920        C921   1.419       .  A
C920        H925   1.084       .  S
C921       C1121   1.485       .  S
C921        C922   1.379       .  A
C922        C923   1.379       .  A
C922        H926   1.089       .  S
C923       C1028   1.483       .  S
C923        C924   1.417       .  A
C924        H927   1.084   1_655  S
C928        C929   1.406       .  A
C928        C933   1.404       .  A
C929        C930   1.402       .  A
C929        H934   1.081       .  S
C930       C1111   1.471       .  S
C930        C931   1.393       .  A
C931        C932   1.392       .  A
C931        H935   1.086       .  S
C932       C1041   1.467       .  S
C932        C933   1.400       .  A
C933        H936   1.080       .  S
C937        C938   1.416       .  A
C937        C942   1.401       .  A
C937        F944   1.358       .  S
C938        C939   1.413       .  A
C939        C940   1.403       .  A
C939        F946   1.356       .  S
C940        C941   1.404       .  A
C940        F945   1.357       .  S
C941        C942   1.404       .  A
C942        F943   1.358       .  S
C947        C948   1.401       .  A
C947        C952   1.401       .  A
C947        F954   1.358       .  S
C948        C949   1.404       .  A
C949        C950   1.395       .  A
C949        F956   1.359       .  S
C950        C951   1.410       .  A
C950        F955   1.358       .  S
C951        C952   1.413       .  A
C952        F953   1.357       .  S
C957        C958   1.403       .  A
C957        C962   1.402       .  A
C957        F964   1.358       .  S
C958        C959   1.404       .  A
C959        C960   1.401       .  A
C959        F966   1.359       .  S
C960        C961   1.416       .  A
C960        F965   1.357       .  S
C961        C962   1.415       .  A
C962        F963   1.356       .  S
C967        C968   1.403       .  A
C967        C972   1.390       .  A
C967        F974   1.359       .  S
C968        C969   1.399       .  A
C969        C970   1.396       .  A
C969        F976   1.358       .  S
C970        C971   1.413       .  A
C970        F975   1.358       .  S
C971        C972   1.408       .  A
C972        F973   1.358       .  S
C977        C978   1.411       .  A
C977        C982   1.400       .  A
C977        F984   1.357       .  S
C978        C979   1.407       .  A
C979        C980   1.391       .  A
C979        F986   1.359       .  S
C980        C981   1.404       .  A
C980        F985   1.359       .  S
C981        C982   1.400       .  A
C982        F983   1.357       .  S
C987        C988   1.415       .  A
C987        C992   1.402       .  A
C987        F994   1.357       .  S
C988        C989   1.413       .  A
C989        C990   1.402       .  A
C989        F996   1.357       .  S
C990        C991   1.405       .  A
C990        F995   1.358       .  S
C991        C992   1.405       .  A
C992        F993   1.358       .  S
C997        C998   1.412       .  A
C997       C1002   1.390       .  A
C997       F1004   1.359       .  S
C998        C999   1.411       .  A
C999       C1000   1.396       .  A
C999       F1006   1.357       .  S
C1000      C1001   1.400       .  A
C1000      F1005   1.357       .  S
C1001      C1002   1.401       .  A
C1002      F1003   1.359       .  S
C1007      C1008   1.402       .  A
C1007      C1012   1.402       .  A
C1007      F1014   1.358       .  S
C1008      C1009   1.404       .  A
C1009      C1010   1.400       .  A
C1009      F1016   1.358       .  S
C1010      C1011   1.413       .  A
C1010      F1015   1.357       .  S
C1011      C1012   1.417       .  A
C1012      F1013   1.357       .  S
C1017      C1018   1.407       .  A
C1017      C1022   1.400       .  A
C1017      F1024   1.358       .  S
C1018      C1019   1.416       .  A
C1019      C1020   1.401       .  A
C1019      F1026   1.357       .  S
C1020      C1021   1.400       .  A
C1020      F1025   1.358       .  S
C1021      C1022   1.411       .  A
C1022      F1023   1.359       .  S
C1027      C1028   1.397       .  A
C1027      C1032   1.398       .  A
C1027      F1034   1.359       .  S
C1028      C1029   1.415       .  A
C1029      C1030   1.413       .  A
C1029      F1036   1.357       .  S
C1030      C1031   1.409       .  A
C1030      F1035   1.357       .  S
C1031      C1032   1.426       .  A
C1032      F1033   1.358       .  S
C1037      C1038   1.407       .  A
C1037      C1042   1.396       .  A
C1037      F1044   1.358       .  S
C1038      C1039   1.410       .  A
C1039      C1040   1.396       .  A
C1039      F1046   1.357       .  S
C1040      C1041   1.401       .  A
C1040      F1045   1.358       .  S
C1041      C1042   1.405       .  A
C1042      F1043   1.358       .  S
C1047      C1048   1.421       .  A
C1047      C1052   1.399       .  A
C1047      F1054   1.358       .  S
C1048      C1049   1.411       .  A
C1049      C1050   1.417       .  A
C1049      F1056   1.357       .  S
C1050      C1051   1.416       .  A
C1050      F1055   1.357       .  S
C1051      C1052   1.400       .  A
C1052      F1053   1.359       .  S
C1057      C1058   1.408       .  A
C1057      C1062   1.415       .  A
C1057      F1064   1.357       .  S
C1058      C1059   1.421       .  A
C1059      C1060   1.395       .  A
C1059      F1066   1.359       .  S
C1060      C1061   1.399       .  A
C1060      F1065   1.359       .  S
C1061      C1062   1.415       .  A
C1062      F1063   1.357       .  S
C1067      C1068   1.402       .  A
C1067      C1072   1.400       .  A
C1067      F1074   1.357       .  S
C1068      C1069   1.404       .  A
C1069      C1070   1.394       .  A
C1069      F1076   1.359       .  S
C1070      C1071   1.410       .  A
C1070      F1075   1.358       .  S
C1071      C1072   1.409       .  A
C1072      F1073   1.357       .  S
C1077      C1078   1.428       .  A
C1077      C1082   1.399       .  A
C1077      F1084   1.359   1_455  S
C1078      C1079   1.408       .  A
C1079      C1080   1.412       .  A
C1079      F1086   1.357       .  S
C1080      C1081   1.414       .  A
C1080      F1085   1.357       .  S
C1081      C1082   1.396       .  A
C1082      F1083   1.359   1_455  S
C1087      C1088   1.413       .  A
C1087      C1092   1.397       .  A
C1087      F1094   1.357       .  S
C1088      C1089   1.405       .  A
C1089      C1090   1.396       .  A
C1089      F1096   1.358       .  S
C1090      C1091   1.410       .  A
C1090      F1095   1.359       .  S
C1091      C1092   1.398       .  A
C1092      F1093   1.357       .  S
C1097      C1098   1.421       .  A
C1097      C1102   1.399       .  A
C1097      F1104   1.358       .  S
C1098      C1099   1.411       .  A
C1099      C1100   1.416       .  A
C1099      F1106   1.357       .  S
C1100      C1101   1.415       .  A
C1100      F1105   1.357       .  S
C1101      C1102   1.401       .  A
C1102      F1103   1.359       .  S
C1107      C1108   1.410       .  A
C1107      C1112   1.397       .  A
C1107      F1114   1.358       .  S
C1108      C1109   1.411       .  A
C1109      C1110   1.399       .  A
C1109      F1116   1.357       .  S
C1110      C1111   1.403       .  A
C1110      F1115   1.358       .  S
C1111      C1112   1.403       .  A
C1112      F1113   1.359       .  S
C1117      C1118   1.409       .  A
C1117      C1122   1.415       .  A
C1117      F1124   1.356       .  S
C1118      C1119   1.426       .  A
C1119      C1120   1.397       .  A
C1119      F1126   1.359       .  S
C1120      C1121   1.398       .  A
C1120      F1125   1.359       .  S
C1121      C1122   1.415       .  A
C1122      F1123   1.357       .  S
C1127      C1128   1.401       .  A
C1127      C1132   1.401       .  A
C1127      F1134   1.357       .  S
C1128      C1129   1.409       .  A
C1129      C1130   1.397       .  A
C1129      F1136   1.359       .  S
C1130      C1131   1.408       .  A
C1130      F1135   1.358       .  S
C1131      C1132   1.415       .  A
C1132      F1133   1.358       .  S
C1137      C1138   1.413       .  A
C1137      C1142   1.402       .  A
C1137      F1144   1.357       .  S
C1138      C1139   1.408       .  A
C1139      C1140   1.396       .  A
C1139      F1146   1.358       .  S
C1140      C1141   1.404       .  A
C1140      F1145   1.359       .  S
C1141      C1142   1.403       .  A
C1142      F1143   1.358       .  S
C1147      C1148   1.398       .  A
C1147      C1152   1.394       .  A
C1147      F1154   1.359       .  S
C1148      C1149   1.415       .  A
C1149      C1150   1.415       .  A
C1149      F1156   1.357       .  S
C1150      C1151   1.409       .  A
C1150      F1155   1.357       .  S
C1151      C1152   1.420       .  A
C1152      F1153   1.358       .  S
C1157      C1158   1.414       .  A
C1157      C1162   1.400       .  A
C1157      F1164   1.357       .  S
C1158      C1159   1.406       .  A
C1159      C1160   1.398       .  A
C1159      F1166   1.358       .  S
C1160      C1161   1.410       .  A
C1160      F1165   1.359       .  S
C1161      C1162   1.399       .  A
C1162      F1163   1.357       .  S
C1167      C1168   1.409       .  A
C1167      C1172   1.413       .  A
C1167      F1174   1.357       .  S
C1168      C1169   1.427       .  A
C1169      C1170   1.399       .  A
C1169      F1176   1.358       .  S
C1170      C1171   1.396       .  A
C1170      F1175   1.358       .  S
C1171      C1172   1.415       .  A
C1172      F1173   1.357       .  S
