geometry optimzed in LAMMPS
_audit_creation_date              2020-11-30 
_audit_creation_method            'lammps2cif' 
_symmetry_space_group_name_H-M    'P1' 
_symmetry_Int_Tables_number       1 
_symmetry_cell_setting            triclinic 
loop_ 
_symmetry_equiv_pos_as_xyz 
  x,y,z 
_cell_length_a                    29.58141146 
_cell_length_b                    29.752765099564655 
_cell_length_c                    38.68043805091038 
_cell_angle_alpha                 90.40558757982016 
_cell_angle_beta                  89.71260391618911 
_cell_angle_gamma                 119.68060815835193 
loop_ 
_atom_site_label 
_atom_site_type_symbol 
_atom_site_fract_x 
_atom_site_fract_y 
_atom_site_fract_z 
_atom_site_charge 
O1          O  0.46587861  0.38354027  0.31686787    -0.75500
O2          O  0.39829227  0.34874448  0.27974985    -0.54400
C3          C  0.41916938  0.34928629  0.30874418     0.78200
O4          O  0.50240772  0.59615436  0.34210573    -0.60100
O5          O  0.57358815  0.64348396  0.30815657    -0.53100
C6          C  0.54852347  0.63548551  0.33688435     0.70200
O7          O  0.35434874  0.43609922  0.31909573    -0.74700
O8          O  0.34023414  0.37977035  0.27496565    -0.55200
C9          C  0.32640021  0.39209440  0.30306201     0.76200
O10         O  0.61297755  0.53449751  0.32071722    -0.59800
O11         O  0.63931665  0.60704578  0.28966320    -0.52900
C12         C  0.64460108  0.58292827  0.31492928     0.72800
Zr13       Zr  0.53701655  0.46191768  0.29179639     2.54700
O14         O  0.56030986  0.42938401  0.34224769    -0.80400
O15         O  0.58679209  0.42444023  0.26699338    -0.93800
Zr16       Zr  0.43883716  0.51908385  0.30700475     2.64700
O17         O  0.41545159  0.50298655  0.36795309    -0.98800
O18         O  0.39022331  0.56524194  0.30433592    -0.80800
O19         O  0.45716115  0.45605215  0.29052304    -0.84200
O20         O  0.52553116  0.53331947  0.30531016    -2.18900
O21         O  0.62386190  0.56493883  0.17798379    -0.67600
O22         O  0.63668737  0.62535005  0.21915043    -0.52100
C23         C  0.65021033  0.61075698  0.19170467     0.71200
O24         O  0.38753948  0.47111682  0.16652201    -0.60500
O25         O  0.34679537  0.40725562  0.20419943    -0.52500
C26         C  0.35263928  0.42438443  0.17358385     0.73000
O27         O  0.51352720  0.62962357  0.18329832    -0.71900
O28         O  0.57585392  0.66279624  0.22401954    -0.50500
C29         C  0.55957949  0.66337224  0.19350690     0.74400
O30         O  0.47837467  0.40405105  0.15875663    -0.67200
O31         O  0.40905254  0.36254210  0.19470188    -0.54400
C32         C  0.43349471  0.36524511  0.16678524     0.72800
Zr33       Zr  0.53989473  0.48415231  0.19093539     2.77500
O34         O  0.54648721  0.49223457  0.12828266    -0.97900
O35         O  0.59694910  0.44696391  0.19099479    -0.78800
Zr36       Zr  0.44471014  0.54442094  0.20436478     2.70100
O37         O  0.42126064  0.57779252  0.15426753    -0.80000
O38         O  0.37986670  0.56561729  0.22583067    -0.99100
Zr39       Zr  0.41627683  0.41839164  0.24105883     2.21500
Zr40       Zr  0.56425095  0.58989243  0.25747773     2.11100
O41         O  0.53019467  0.55694512  0.20143103    -2.47800
O42         O  0.45983544  0.47646546  0.19947106    -0.79800
O43         O  0.57947695  0.51943309  0.24561203    -0.72000
O44         O  0.40020738  0.48800798  0.25153902    -2.33000
O45         O  0.49941810  0.42441437  0.23726571    -2.29200
O46         O  0.47917404  0.57960675  0.26036259    -0.73800
H47         H  0.54175449  0.54684132  0.32722416     0.78200
H48         H  0.36352964  0.47685632  0.25171687     0.79300
H49         H  0.54953179  0.57818769  0.18221269     0.81500
H50         H  0.49706691  0.39134666  0.23322404     0.79200
H51         H  0.41696844  0.60220767  0.30657155     0.42200
H52         H  0.38982865  0.59979484  0.21576442     0.41200
H53         H  0.38276367  0.55900786  0.15369150     0.40800
H54         H  0.54763692  0.52540641  0.12345616     0.38800
H55         H  0.59541949  0.43451684  0.16698692     0.41900
H56         H  0.56828396  0.38796226  0.27468159     0.36700
H57         H  0.55861740  0.45012733  0.36180722     0.42800
H58         H  0.44766048  0.50908905  0.37973604     0.39200
H59         H  0.58181214  0.49842465  0.12268596     0.44100
H60         H  0.61977219  0.44060521  0.28019438     0.42900
H61         H  0.41046403  0.53214889  0.37544806     0.43000
H62         H  0.34726801  0.54111788  0.21380921     0.43400
O63         O  0.03732431  0.41528981  0.32163828    -0.75500
O64         O  0.99697143  0.35482402  0.27970321    -0.54400
C65         C  0.01837897  0.36817712  0.30920614     0.78200
O66         O  0.90709715  0.54191032  0.31829601    -0.60100
O67         O  0.96884369  0.61145745  0.28962111    -0.53100
C68         C  0.93674866  0.59109220  0.31436124     0.70200
O69         O  0.89812813  0.39870440  0.33496061    -0.74700
O70         O  0.91324127  0.34641357  0.29986217    -0.55200
C71         C  0.90257877  0.35852912  0.32983087     0.76200
O72         O  0.07384896  0.59057885  0.33303797    -0.59800
O73         O  0.05425207  0.63552028  0.29441726    -0.52900
C74         C  0.07074423  0.63116227  0.32397251     0.72800
Zr75       Zr  0.05269662  0.50504899  0.30446238     2.54700
O76         O  0.08365047  0.50857405  0.36314080    -0.80400
O77         O  0.14499513  0.53789550  0.29384285    -0.93800
Zr78       Zr  0.89879346  0.46101390  0.29432116     2.64700
O79         O  0.83232696  0.43674944  0.33914138    -0.98800
O80         O  0.81037746  0.41817409  0.27146713    -0.80800
O81         O  0.96763656  0.44615967  0.29333572    -0.84200
O82         O  0.98566484  0.52714391  0.30180277    -2.18900
O83         O  0.08547898  0.59864710  0.17284446    -0.67600
O84         O  0.07220296  0.64266064  0.21488085    -0.52100
C85         C  0.08314971  0.63851733  0.18344087     0.71200
O86         O  0.91380899  0.38968443  0.16312814    -0.60500
O87         O  0.90073516  0.33555605  0.20664669    -0.52500
C88         C  0.90656543  0.34556205  0.17435595     0.73000
O89         O  0.91022389  0.54654902  0.17669066    -0.71900
O90         O  0.96153809  0.60981743  0.21506856    -0.50500
C91         C  0.93061872  0.59329838  0.18926535     0.74400
O92         O  0.06381899  0.44295558  0.17649823    -0.67200
O93         O  0.01006184  0.37319250  0.20905078    -0.54400
C94         C  0.04198223  0.39500688  0.18409626     0.72800
Zr95       Zr  0.06738896  0.51819461  0.20207425     2.77500
O96         O  0.11521785  0.52494949  0.14912474    -0.97900
O97         O  0.15684606  0.55755527  0.22217068    -0.78800
Zr98       Zr  0.91202871  0.46499809  0.19175942     2.70100
O99         O  0.90338044  0.47173323  0.12974052    -0.80000
O100        O  0.81739735  0.41674020  0.19012346    -0.99100
Zr101      Zr  0.96119518  0.39639140  0.24790009     2.21500
Zr102      Zr  0.00397690  0.57659897  0.25003508     2.11100
O103        O  0.99742554  0.53550944  0.19624090    -2.47800
O104        O  0.98116740  0.44689467  0.19700418    -0.79800
O105        O  0.07477573  0.56075917  0.25534552    -0.72000
O106        O  0.89058383  0.41266709  0.24270079    -2.33000
O107        O  0.05025095  0.46367644  0.25139976    -2.29200
O108        O  0.91531657  0.51107369  0.24371484    -0.73800
H109        H  0.98635306  0.54363970  0.32330838     0.78200
H110        H  0.85798867  0.38067741  0.24080618     0.79300
H111        H  0.99887553  0.55564002  0.17650530     0.81500
H112        H  0.07356103  0.44976695  0.25198633     0.79200
H113        H  0.79386691  0.38244844  0.28056949     0.42200
H114        H  0.80804159  0.43355963  0.17167275     0.41200
H115        H  0.93907868  0.48501741  0.12060553     0.40800
H116        H  0.09389987  0.52741036  0.13038003     0.38800
H117        H  0.16508964  0.52911713  0.22115300     0.41900
H118        H  0.14897409  0.50675427  0.29384717     0.36700
H119        H  0.06266951  0.51883889  0.37767582     0.42800
H120        H  0.85078771  0.44439703  0.36149999     0.39200
H121        H  0.14680622  0.55949816  0.15019993     0.44100
H122        H  0.16245921  0.55663344  0.31532296     0.42900
H123        H  0.81994639  0.46209252  0.33751848     0.43000
H124        H  0.80894202  0.38265809  0.18026162     0.43400
O125        O  0.40048898  0.91055615  0.33245356    -0.75500
O126        O  0.35624078  0.93829359  0.29903240    -0.54400
C127        C  0.36236203  0.91900741  0.32703494     0.78200
O128        O  0.62710923  0.07408020  0.32868342    -0.60100
O129        O  0.65372007  0.03830990  0.28746717    -0.53100
C130        C  0.65973630  0.06026351  0.31682294     0.70200
O131        O  0.46514640  0.06289587  0.33826140    -0.74700
O132        O  0.40019173  0.04059237  0.29984032    -0.55200
C133        C  0.42010418  0.05664722  0.32976988     0.76200
O134        O  0.54499574  0.89970504  0.30838968    -0.59800
O135        O  0.60778085  0.94191325  0.26778577    -0.52900
C136        C  0.59017850  0.91402793  0.29469871     0.72800
Zr137      Zr  0.46881037  0.91129348  0.29521018     2.54700
O138        O  0.46383832  0.87163858  0.35099168    -0.80400
O139        O  0.41259120  0.82104831  0.27916120    -0.93800
Zr140      Zr  0.54146934  0.06514118  0.30937858     2.64700
O141        O  0.54440854  0.07338411  0.37196118    -0.98800
O142        O  0.58490928  0.15921765  0.30897897    -0.80800
O143        O  0.46894678  0.98780010  0.29833211    -0.84200
O144        O  0.54758950  0.98982086  0.30026674    -2.18900
O145        O  0.53960635  0.92524958  0.16333814    -0.67600
O146        O  0.61194019  0.97105221  0.19541105    -0.52100
C147        C  0.58916283  0.94422120  0.16864784     0.71200
O148        O  0.46293737  0.08601874  0.18441872    -0.60500
O149        O  0.39787475  0.04730944  0.22338764    -0.52500
C150        C  0.41627317  0.07085788  0.19493296     0.73000
O151        O  0.61997712  0.09993383  0.17829444    -0.71900
O152        O  0.65804345  0.07117347  0.21575402    -0.50500
C153        C  0.65681398  0.09099725  0.18691870     0.74400
O154        O  0.38838364  0.92972170  0.16982326    -0.67200
O155        O  0.35273113  0.95509550  0.21195465    -0.54400
C156        C  0.35250021  0.93887662  0.18102458     0.72800
Zr157      Zr  0.46559765  0.92896564  0.19353838     2.77500
O158        O  0.44110530  0.89723887  0.13470330    -0.97900
O159        O  0.41935318  0.83597329  0.20295594    -0.78800
Zr160      Zr  0.53919271  0.08489924  0.20762731     2.70100
O161        O  0.55517844  0.13521291  0.15504503    -0.80000
O162        O  0.58246229  0.17235542  0.23116984    -0.99100
Zr163      Zr  0.41912842  0.99365375  0.25658376     2.21500
Zr164      Zr  0.58690371  0.00240478  0.24472474     2.11100
O165        O  0.54397486  0.00926060  0.19488060    -2.47800
O166        O  0.46689702  0.00427601  0.20846177    -0.79800
O167        O  0.51088866  0.91945832  0.24093789    -0.72000
O168        O  0.49638308  0.07601669  0.26169172    -2.33000
O169        O  0.41929233  0.91426319  0.24716114    -2.29200
O170        O  0.58677068  0.08095527  0.25573671    -0.73800
H171        H  0.56636609  0.98587458  0.31907396     0.78200
H172        H  0.48871157  0.10373590  0.26557550     0.79300
H173        H  0.56107310  0.01323242  0.17306342     0.81500
H174        H  0.38438328  0.88506761  0.24631232     0.79200
H175        H  0.55621920  0.16731063  0.30920578     0.42200
H176        H  0.61500677  0.19079509  0.21755270     0.41200
H177        H  0.55253532  0.11149793  0.13610386     0.40800
H178        H  0.46538697  0.92654129  0.12010619     0.38800
H179        H  0.38295447  0.82468159  0.19634698     0.41900
H180        H  0.39986133  0.80273948  0.30142638     0.36700
H181        H  0.48046174  0.90112154  0.36736472     0.42800
H182        H  0.55049057  0.04544254  0.38025269     0.39200
H183        H  0.45127830  0.87038114  0.13153537     0.44100
H184        H  0.43678902  0.80965163  0.27033197     0.42900
H185        H  0.57698393  0.10603946  0.37682136     0.43000
H186        H  0.56091252  0.18730364  0.22336243     0.43400
C187        C  0.06078110  0.12780976  0.36087588     0.02900
C188        C  0.03058972  0.15342865  0.36164583    -0.13200
C189        C  0.05196753  0.20548428  0.35062504     0.00400
C190        C  0.10111130  0.23005750  0.33619874    -0.11800
C191        C  0.13383832  0.20946786  0.33777941     0.02900
C192        C  0.11381959  0.15791732  0.34968246    -0.11200
H193        H  0.99297034  0.13502458  0.37432102     0.08500
H194        H  0.11647681  0.26914938  0.32644359     0.06000
H195        H  0.14026416  0.14313062  0.35342205     0.05900
C196        C  0.11230171  0.21478839  0.06755920     0.02900
C197        C  0.16675444  0.24680151  0.06647577    -0.13200
C198        C  0.18966150  0.29519970  0.08321167     0.00400
C199        C  0.15809236  0.31339895  0.09684527    -0.11800
C200        C  0.10471525  0.28092173  0.09925528     0.02900
C201        C  0.08174625  0.23126092  0.08529911    -0.11200
H202        H  0.19102369  0.23241623  0.05566585     0.08500
H203        H  0.17570044  0.35053330  0.11012230     0.06000
H204        H  0.04075104  0.20542114  0.08876221     0.05900
C205        C  0.09407753  0.86528959  0.06365001     0.02900
C206        C  0.07208234  0.81217408  0.07122069    -0.13200
C207        C  0.10230935  0.79431638  0.08844387     0.00400
C208        C  0.15402557  0.82860116  0.09665204    -0.11800
C209        C  0.17493281  0.88134341  0.09287369     0.02900
C210        C  0.14545039  0.89989923  0.07607884    -0.11200
H211        H  0.03229304  0.78558334  0.06437756     0.08500
H212        H  0.17628759  0.81456891  0.11069703     0.06000
H213        H  0.16237984  0.94132524  0.07323349     0.05900
C214        C  0.89046542  0.09534351  0.08178552     0.02900
C215        C  0.91842713  0.15041395  0.08280916    -0.13200
C216        C  0.89256271  0.17864183  0.09103550     0.00400
C217        C  0.83902577  0.15151542  0.09555435    -0.11800
C218        C  0.81237103  0.09809960  0.09867228     0.02900
C219        C  0.83707557  0.06969616  0.09004754    -0.11200
H220        H  0.95938975  0.17095180  0.07730433     0.08500
H221        H  0.81928103  0.17255869  0.10339382     0.06000
H222        H  0.81517394  0.02805753  0.09008951     0.05900
C223        C  0.91799454  0.13208081  0.42905086     0.02900
C224        C  0.87306397  0.09484668  0.41087497    -0.13200
C225        C  0.84435239  0.10966237  0.39018262     0.00400
C226        C  0.86179217  0.16148260  0.38518433    -0.11800
C227        C  0.89832591  0.19961572  0.40707934     0.02900
C228        C  0.92924627  0.18516251  0.42830749    -0.11200
H229        H  0.85946381  0.05382151  0.41319845     0.08500
H230        H  0.84104300  0.17111138  0.36624758     0.06000
H231        H  0.95917504  0.21300907  0.44507359     0.05900
C232        C  0.23164473  0.12876186  0.44340375     0.02900
C233        C  0.25368885  0.17851635  0.42924380    -0.13200
C234        C  0.30075612  0.19900796  0.41079491     0.00400
C235        C  0.32735365  0.17163968  0.40804103    -0.11800
C236        C  0.30546890  0.12111969  0.41941934     0.02900
C237        C  0.25802459  0.09980871  0.43789279    -0.11200
H238        H  0.23343447  0.19994450  0.43147824     0.08500
H239        H  0.36263294  0.18766002  0.39252265     0.06000
H240        H  0.24057585  0.05991821  0.44610032     0.05900
C241        C  0.11044975  0.89111632  0.41448946     0.02900
C242        C  0.07650247  0.83751281  0.40877986    -0.13200
C243        C  0.09596382  0.80251843  0.41065099     0.00400
C244        C  0.14652070  0.82161035  0.42253955    -0.11800
C245        C  0.18342292  0.87168771  0.41377305     0.02900
C246        C  0.16530967  0.90834104  0.41365674    -0.11200
H247        H  0.03598042  0.82337695  0.40335936     0.08500
H248        H  0.15903064  0.79485563  0.43021635     0.06000
H249        H  0.19294977  0.94916699  0.41294916     0.05900
C250        C  0.19791413  0.09665290  0.09288184     0.02900
C251        C  0.23027736  0.15171919  0.09296508    -0.13200
C252        C  0.28400684  0.17453889  0.10165489     0.00400
C253        C  0.30450602  0.14174106  0.10624695    -0.11800
C254        C  0.27216509  0.08882085  0.11091732     0.02900
C255        C  0.21919653  0.06605302  0.10366169    -0.11200
H256        H  0.21410277  0.17592299  0.08607934     0.08500
H257        H  0.34545409  0.15866207  0.11275668     0.06000
H258        H  0.19476024  0.02450237  0.10592114     0.05900
O259        O  0.06268681  0.12429999  0.07269524    -0.86700
O260        O  0.02043804  0.03793151  0.38695707    -0.86900
O261        O  0.14794747  0.12327551  0.45934361    -0.88500
O262        O  0.99464005  0.12849565  0.45326620    -0.87300
O263        O  0.91100239  0.06569703  0.46490141    -0.86900
O264        O  0.16686791  0.06038145  0.47452087    -0.88300
O265        O  0.06907254  0.11472980  0.41669565    -0.86700
O266        O  0.08944289  0.16128307  0.01871784    -0.86300
Zr267      Zr  0.05310063  0.09335028  0.47451767     2.84300
O268        O  0.97493017  0.02675746  0.45053684    -1.08300
O269        O  0.07572887  0.06038075  0.02175504    -1.09000
C270        C  0.08693910  0.16322310  0.05200364     1.06400
C271        C  0.04926268  0.08923095  0.38913163     1.06300
C272        C  0.17907390  0.10363170  0.46054196     1.09300
C273        C  0.94404698  0.10921287  0.45136103     1.07100
H274        H  0.08962990  0.03640449  0.43401934     0.32700
O275        O  0.06424453  0.02539049  0.45238183    -1.29300
H276        H  0.98698328  0.09155444  0.02371765     0.32300
O277        O  0.99072311  0.06204346  0.01783305    -1.30900
O278        O  0.93546323  0.86435807  0.42613446    -0.86700
O279        O  0.96960452  0.94911064  0.10927244    -0.88200
O280        O  0.11068892  0.94983766  0.45578311    -0.86800
O281        O  0.84890758  0.94170769  0.44911515    -0.86800
O282        O  0.89349254  0.04204813  0.03825967    -0.86500
O283        O  0.14869389  0.04800721  0.04613541    -0.86400
O284        O  0.01597104  0.86753268  0.04236840    -0.86700
O285        O  0.86268625  0.87322969  0.04495468    -0.86200
O286        O  0.09859333  0.93048503  0.02902706    -0.87300
O287        O  0.84163324  0.93283117  0.02550076    -0.86400
O288        O  0.04872791  0.92514219  0.41332890    -0.86800
O289        O  0.10460133  0.06495033  0.08870485    -0.86500
O290        O  0.95199862  0.06301435  0.08279221    -0.86200
O291        O  0.89465264  0.92395684  0.40818747    -0.86600
O292        O  0.91654547  0.82888303  0.48094662    -0.86900
O293        O  0.94331860  0.87309845  0.07896274    -0.88200
Zr294      Zr  0.98670038  0.95896286  0.42908894     2.83100
Zr295      Zr  0.01336238  0.02994072  0.06725625     2.83500
Zr296      Zr  0.09057911  0.99597925  0.00016629     2.84100
Zr297      Zr  0.91359920  0.99621360  0.99411844     2.83400
Zr298      Zr  0.95380143  0.89866516  0.02226199     2.84200
O299        O  0.93817137  0.96463186  0.04160170    -1.08800
O300        O  0.01314202  0.92823710  0.47705799    -1.08300
C301        C  0.91502993  0.82617855  0.44772107     1.06400
C302        C  0.94871500  0.89773643  0.10688244     1.09000
C303        C  0.08910395  0.92532674  0.42766028     1.06500
C304        C  0.85140778  0.91918598  0.42088966     1.06900
C305        C  0.91354322  0.06448162  0.06727309     1.06500
C306        C  0.14678639  0.06892251  0.07496580     1.06000
C307        C  0.06672605  0.88778172  0.04338327     1.06500
C308        C  0.83173627  0.89305940  0.04341815     1.06000
H309        H  0.04316900  0.95543858  0.06540603     0.32700
O310        O  0.03047652  0.96602435  0.04590910    -1.29900
H311        H  0.89425200  0.89952202  0.46979005     0.32700
O312        O  0.92700376  0.92905628  0.47601508    -1.31300
C313        C  0.78129401  0.87277915  0.06335011     0.02900
C314        C  0.75845686  0.90528245  0.06630084    -0.13200
C315        C  0.70933895  0.88737162  0.08152942     0.00400
C316        C  0.68159947  0.83656220  0.09204091    -0.11800
C317        C  0.70548879  0.80669758  0.09474184     0.02900
C318        C  0.75580989  0.82453211  0.08037370    -0.11200
H319        H  0.77936202  0.94517576  0.05796522     0.08500
H320        H  0.64376525  0.82302801  0.10409110     0.06000
H321        H  0.77530075  0.80246472  0.08299003     0.05900
C322        C  0.80141157  0.88729466  0.40102877     0.02900
C323        C  0.79259889  0.91120071  0.37266820    -0.13200
C324        C  0.74715714  0.88432309  0.35307942     0.00400
C325        C  0.71425109  0.83193089  0.35874374    -0.11800
C326        C  0.71395187  0.80943387  0.39029850     0.02900
C327        C  0.75964816  0.83700223  0.41155357    -0.11200
H328        H  0.81893684  0.95174524  0.36761912     0.08500
H329        H  0.68153737  0.81144200  0.34132770     0.06000
H330        H  0.76244614  0.82069272  0.43580715     0.05900
C331        C  0.92401835  0.85750831  0.13494092     0.02900
C332        C  0.86854957  0.83273045  0.13760691    -0.13200
C333        C  0.83816398  0.77802846  0.14079956     0.00400
C334        C  0.86222897  0.74854111  0.14204529    -0.11800
C335        C  0.91513385  0.77043603  0.14520067     0.02900
C336        C  0.94682576  0.82524767  0.14132939    -0.11200
H337        H  0.84902647  0.85492940  0.13375495     0.08500
H338        H  0.83836373  0.70673766  0.14470528     0.06000
H339        H  0.98854864  0.84210165  0.13969174     0.05900
C340        C  0.89159714  0.77466121  0.43334108     0.02900
C341        C  0.84011446  0.74888607  0.42108871    -0.13200
C342        C  0.82168768  0.70152434  0.40344420     0.00400
C343        C  0.85476448  0.68162036  0.39842468    -0.11800
C344        C  0.90551027  0.70758083  0.41043711     0.02900
C345        C  0.92374459  0.75314732  0.42905116    -0.11200
H346        H  0.81588080  0.76651305  0.42392690     0.08500
H347        H  0.84234842  0.64758619  0.38213969     0.06000
H348        H  0.96390908  0.77389196  0.43744261     0.05900
C349        C  0.70817184  0.94198782  0.12906602    -0.02100
C350        C  0.69015514  0.92117745  0.09605422     0.07600
C351        C  0.64192079  0.91430033  0.08493026    -0.02200
C352        C  0.61034599  0.92481239  0.10741126    -0.02200
C353        C  0.62415893  0.93731473  0.14279619     0.07700
C354        C  0.67470941  0.94676153  0.15295675    -0.02400
Br355      Br  0.69979915  0.96159048  0.19998552    -0.00900
Br356      Br  0.77753954  0.95839597  0.14297961    -0.01000
Br357      Br  0.55015675  0.92366674  0.08796049    -0.01000
Br358      Br  0.61808982  0.88671262  0.03915791    -0.00900
C359        C  0.74537531  0.10566274  0.17529864    -0.02100
C360        C  0.69740537  0.09688501  0.16185050     0.07600
C361        C  0.68444724  0.07945111  0.12714582    -0.02200
C362        C  0.71949286  0.07151381  0.10664657    -0.02200
C363        C  0.76607107  0.07842558  0.12094341     0.07700
C364        C  0.77647568  0.09132011  0.15619894    -0.02400
Br365      Br  0.83651980  0.09400476  0.17750800    -0.00900
Br366      Br  0.77142230  0.14239573  0.21858454    -0.01000
Br367      Br  0.70521554  0.05222825  0.05860447    -0.01000
Br368      Br  0.62006425  0.06730010  0.10667597    -0.00900
C369        C  0.74359672  0.05454099  0.32298415    -0.02100
C370        C  0.70539746  0.06553265  0.33811628     0.07600
C371        C  0.70883099  0.07480027  0.37451427    -0.02200
C372        C  0.75000962  0.07621550  0.39377029    -0.02200
C373        C  0.79120481  0.07420318  0.37712797     0.07700
C374        C  0.78536787  0.05845983  0.34273141    -0.02400
Br375      Br  0.83495609  0.04064641  0.32382409    -0.00900
Br376      Br  0.74411177  0.03624096  0.27505875    -0.01000
Br377      Br  0.75146496  0.08022940  0.44369872    -0.01000
Br378      Br  0.65945739  0.08673475  0.39968739    -0.00900
C379        C  0.64781241  0.92420517  0.34453707    -0.02100
C380        C  0.62849608  0.90335931  0.31149629     0.07600
C381        C  0.65677692  0.88714889  0.29042982    -0.02200
C382        C  0.70508658  0.89424893  0.30136146    -0.02200
C383        C  0.72160875  0.90971653  0.33552977     0.07700
C384        C  0.69388010  0.92679086  0.35669793    -0.02400
Br385      Br  0.71541445  0.94777092  0.40398097    -0.00900
Br386      Br  0.61000887  0.94672881  0.37402572    -0.01000
Br387      Br  0.74796799  0.87983790  0.27086839    -0.01000
Br388      Br  0.62589204  0.85034002  0.24813862    -0.00900
C389        C  0.29046463  0.06246115  0.16632185    -0.02100
C390        C  0.29500322  0.06254149  0.13016323     0.07600
C391        C  0.33806545  0.06225869  0.11511300    -0.02200
C392        C  0.38030713  0.06975884  0.13564674    -0.02200
C393        C  0.37824594  0.07487812  0.17209243     0.07700
C394        C  0.33311905  0.07239920  0.18709361    -0.02400
Br395      Br  0.33080713  0.08892918  0.23545342    -0.00900
Br396      Br  0.22645029  0.05158600  0.18742188    -0.01000
Br397      Br  0.44104011  0.07625485  0.11224785    -0.01000
Br398      Br  0.33939384  0.05515946  0.06554177    -0.00900
C399        C  0.26225928  0.92936311  0.16977758    -0.02100
C400        C  0.30873950  0.93158345  0.15678271     0.07600
C401        C  0.31294623  0.92838503  0.12004884    -0.02200
C402        C  0.27067568  0.91806257  0.09812469    -0.02200
C403        C  0.22473816  0.91401015  0.11157405     0.07700
C404        C  0.22233558  0.92337326  0.14697701    -0.02400
Br405      Br  0.16127740  0.92380500  0.16421593    -0.00900
Br406      Br  0.24768920  0.92808109  0.21874732    -0.01000
Br407      Br  0.27341067  0.90603637  0.04914926    -0.01000
Br408      Br  0.37521496  0.93752895  0.09766806    -0.00900
C409        C  0.27312321  0.85896500  0.34776440    -0.02100
C410        C  0.32085971  0.90340263  0.35359205     0.07600
C411        C  0.32741540  0.93207546  0.38431429    -0.02200
C412        C  0.28320972  0.92344939  0.40424261    -0.02200
C413        C  0.23401817  0.87983296  0.39723033     0.08500
C414        C  0.23362822  0.84328387  0.37260692    -0.02400
Br415      Br  0.20077007  0.77002511  0.38129373    -0.00900
Br416      Br  0.26501367  0.81469198  0.30862918    -0.01000
Br417      Br  0.29165687  0.96640040  0.44382603    -0.01000
Br418      Br  0.39655765  0.97751399  0.40104870    -0.00900
C419        C  0.33307546  0.04414106  0.35309561    -0.02100
C420        C  0.38843985  0.06747369  0.35607940     0.07600
C421        C  0.41265675  0.10051653  0.38500582    -0.02200
C422        C  0.38270359  0.10955992  0.40974224    -0.02200
C423        C  0.32917939  0.09104748  0.40442808     0.07700
C424        C  0.30444669  0.05739746  0.37635144    -0.02400
Br425      Br  0.23181183  0.03378729  0.36723131    -0.00900
Br426      Br  0.29356176  0.99432257  0.31728872    -0.01000
Br427      Br  0.41574128  0.15166464  0.45008833    -0.01000
Br428      Br  0.48747503  0.13952566  0.38987817    -0.00900
C429        C  0.06968265  0.71407450  0.16707373    -0.02100
C430        C  0.08641374  0.67802757  0.15770620     0.07600
C431        C  0.10023981  0.67681439  0.12242530    -0.02200
C432        C  0.09565215  0.70903428  0.09765954    -0.02200
C433        C  0.08075023  0.74528986  0.10767340     0.07700
C434        C  0.06755889  0.74726462  0.14233411    -0.02400
Br435      Br  0.05534979  0.80254024  0.15717545    -0.00900
Br436      Br  0.05238470  0.72374926  0.21376307    -0.01000
Br437      Br  0.11529412  0.70837273  0.05002180    -0.01000
Br438      Br  0.13184032  0.63677162  0.10719892    -0.00900
C439        C  0.93348261  0.65196035  0.14054700    -0.02100
C440        C  0.91991827  0.63352370  0.17464946     0.07600
C441        C  0.90781386  0.66238464  0.19818404    -0.02200
C442        C  0.91827334  0.71274622  0.19002980    -0.02200
C443        C  0.93049743  0.73132669  0.15572125     0.07700
C444        C  0.93396832  0.69809364  0.13056893    -0.02400
Br445      Br  0.93155514  0.71150665  0.08226362    -0.00900
Br446      Br  0.95058992  0.61397503  0.10756002    -0.01000
Br447      Br  0.91022409  0.75419905  0.22535965    -0.01000
Br448      Br  0.87002732  0.62916810  0.23981546    -0.00900
C449        C  0.95577445  0.67955687  0.33430987    -0.02100
C450        C  0.93931307  0.62689573  0.34190234     0.07600
C451        C  0.93188108  0.61085878  0.37700619    -0.02200
C452        C  0.93321211  0.64448496  0.40291260    -0.02200
C453        C  0.94007778  0.69282520  0.39387287     0.07700
C454        C  0.95549676  0.71212189  0.36032027    -0.02400
Br455      Br  0.96318759  0.77881548  0.34824604    -0.00900
Br456      Br  0.97625501  0.70916301  0.28876418    -0.01000
Br457      Br  0.91530246  0.62160523  0.45014795    -0.01000
Br458      Br  0.92013004  0.54380563  0.39122871    -0.00900
C459        C  0.09304298  0.72372701  0.33389578    -0.02100
C460        C  0.08090678  0.67518104  0.34841748     0.07600
C461        C  0.06900797  0.66805154  0.38425422    -0.02200
C462        C  0.06831472  0.70790841  0.40438354    -0.02200
C463        C  0.07692969  0.75459550  0.38901871     0.07700
C464        C  0.08791736  0.76131532  0.35323710    -0.02400
Br465      Br  0.10299722  0.82537973  0.33090847    -0.00900
Br466      Br  0.12560872  0.74340917  0.28885952    -0.01000
Br467      Br  0.05950599  0.70068842  0.45389969    -0.01000
Br468      Br  0.05698984  0.60585346  0.40704703    -0.00900
C469        C  0.90051218  0.30521846  0.11397469    -0.02100
C470        C  0.90998645  0.30655485  0.15012871     0.07600
C471        C  0.92576027  0.27122275  0.16276765    -0.02200
C472        C  0.93343209  0.23808446  0.14017471    -0.02200
C473        C  0.91753923  0.23244980  0.10556161     0.07700
C474        C  0.90302002  0.26770206  0.09230440    -0.02400
Br475      Br  0.88074063  0.25988578  0.04475026    -0.00900
Br476      Br  0.87895710  0.35065523  0.09361372    -0.01000
Br477      Br  0.96032857  0.19508401  0.15770096    -0.01000
Br478      Br  0.93270404  0.26138066  0.21120498    -0.00900
C479        C  0.08134505  0.29833110  0.15686252    -0.02100
C480        C  0.07599010  0.29863859  0.12074302     0.07600
C481        C  0.05675919  0.32837529  0.10547226    -0.02200
C482        C  0.04652935  0.36110293  0.12614549    -0.02200
C483        C  0.05373121  0.36214024  0.16227526     0.07700
C484        C  0.07076584  0.33050397  0.17769201    -0.02400
Br485      Br  0.08534724  0.33536096  0.22674610    -0.00900
Br486      Br  0.10442184  0.25464079  0.17770958    -0.01000
Br487      Br  0.02494645  0.40571828  0.10448389    -0.01000
Br488      Br  0.04688823  0.32558666  0.05606617    -0.00900
C489        C  0.05836617  0.28970377  0.36792016    -0.02100
C490        C  0.02778118  0.23919069  0.35397828     0.07600
C491        C  0.98660925  0.23008575  0.33229166    -0.02200
C492        C  0.97949472  0.27138080  0.32179298    -0.02200
C493        C  0.01810182  0.32423480  0.32903089     0.07700
C494        C  0.05698442  0.33251047  0.35332409    -0.02400
Br495      Br  0.11209360  0.40133470  0.36426982    -0.00900
Br496      Br  0.10601709  0.30024811  0.40489284    -0.01000
Br497      Br  0.91499387  0.25121794  0.29825156    -0.01000
Br498      Br  0.94374601  0.16172457  0.31339482    -0.00900
C499        C  0.94249292  0.29986089  0.40298718    -0.02100
C500        C  0.89773918  0.25080390  0.40521143     0.07600
C501        C  0.85052870  0.24930214  0.39546652    -0.02200
C502        C  0.85074148  0.28261009  0.36964849    -0.02200
C503        C  0.89810452  0.32571597  0.36034982     0.07700
C504        C  0.94104511  0.33851285  0.38230379    -0.02400
Br505      Br  0.99005137  0.40978165  0.39022928    -0.00900
Br506      Br  0.99924248  0.31781425  0.43406109    -0.01000
Br507      Br  0.78679732  0.27050556  0.34857291    -0.01000
Br508      Br  0.78685163  0.20382246  0.41872204    -0.00900
C509        C  0.61273029  0.66745148  0.38719546    -0.02100
C510        C  0.57742725  0.67354094  0.36566413     0.07600
C511        C  0.57674659  0.72027117  0.36875264    -0.02200
C512        C  0.61560344  0.76151629  0.38840244    -0.02200
C513        C  0.66161327  0.76111776  0.39842102     0.07700
C514        C  0.65598344  0.71158809  0.40255035    -0.02400
Br515      Br  0.70052077  0.70391808  0.43478299    -0.00900
Br516      Br  0.59791429  0.59865229  0.39821969    -0.01000
Br517      Br  0.60753833  0.81961706  0.40068526    -0.01000
Br518      Br  0.52408114  0.72849109  0.34536476    -0.00900
C519        C  0.74022632  0.62041521  0.39004325    -0.02100
C520        C  0.77149210  0.67418130  0.38526326     0.07600
C521        C  0.76046209  0.69840003  0.35821767    -0.02200
C522        C  0.71606465  0.66970782  0.33785368    -0.02200
C523        C  0.68865428  0.61424436  0.33921759     0.07700
C524        C  0.70276164  0.59010677  0.36529190    -0.02400
Br525      Br  0.67566488  0.51626316  0.36710020    -0.00900
Br526      Br  0.75085377  0.58793416  0.43006869    -0.01000
Br527      Br  0.69397099  0.71023217  0.31100998    -0.01000
Br528      Br  0.80853742  0.76981359  0.34651262    -0.00900
C529        C  0.74851327  0.70685406  0.12693356    -0.02100
C530        C  0.78229178  0.74705380  0.14990158     0.07600
C531        C  0.77273411  0.73912757  0.18566224    -0.02200
C532        C  0.73652727  0.69001703  0.19790682    -0.02200
C533        C  0.69880918  0.65255466  0.17562792     0.07700
C534        C  0.70465989  0.66179903  0.13968581    -0.02400
Br535      Br  0.65552005  0.61237501  0.10748841    -0.00900
Br536      Br  0.76711868  0.70865359  0.07881635    -0.01000
Br537      Br  0.74576989  0.67061328  0.24367045    -0.01000
Br538      Br  0.81558859  0.79279661  0.21831491    -0.00900
C539        C  0.68506033  0.77418716  0.15452381    -0.02100
C540        C  0.67807508  0.76299616  0.11891582     0.07600
C541        C  0.63226217  0.71946365  0.10754063    -0.02200
C542        C  0.59273126  0.68813837  0.13125581    -0.02200
C543        C  0.59885428  0.69979239  0.16751159     0.07700
C544        C  0.64710522  0.74231773  0.17871249    -0.02400
Br545      Br  0.66401339  0.75952815  0.22698336    -0.00900
Br546      Br  0.74463555  0.83764145  0.16985368    -0.01000
Br547      Br  0.53208042  0.62887575  0.11204688    -0.01000
Br548      Br  0.62283109  0.70590849  0.05833834    -0.00900
C549        C  0.31596842  0.40500150  0.11199853    -0.02100
C550        C  0.31788225  0.38774937  0.14598371     0.07600
C551        C  0.28567764  0.33378536  0.15334566    -0.02200
C552        C  0.24852506  0.30071799  0.12929484    -0.02200
C553        C  0.24249967  0.32013757  0.09772959     0.07700
C554        C  0.27794191  0.37123181  0.08835637    -0.02400
Br555      Br  0.27004384  0.39558715  0.04388601    -0.00900
Br556      Br  0.36341715  0.47435742  0.09635117    -0.01000
Br557      Br  0.19987213  0.22983209  0.14203735    -0.01000
Br558      Br  0.28869429  0.30150485  0.19607206    -0.00900
C559        C  0.38772158  0.31903936  0.11067150    -0.02100
C560        C  0.40526214  0.31811983  0.14458812     0.07600
C561        C  0.38102833  0.27110793  0.16256684    -0.02200
C562        C  0.33401962  0.23035030  0.15072331    -0.02200
C563        C  0.31806821  0.22815029  0.11613968     0.07700
C564        C  0.34638410  0.27296088  0.09564733    -0.02400
Br565      Br  0.32732681  0.27173987  0.04810195    -0.00900
Br566      Br  0.41976291  0.38280705  0.08535490    -0.01000
Br567      Br  0.28930866  0.17953818  0.18342265    -0.01000
Br568      Br  0.41113084  0.26331946  0.20484704    -0.00900
C569        C  0.39466246  0.32451675  0.37139069    -0.02100
C570        C  0.38565805  0.31121775  0.33556676     0.07600
C571        C  0.34066055  0.26398981  0.32604550    -0.02200
C572        C  0.30739842  0.23058817  0.35166687    -0.02200
C573        C  0.31902527  0.24263177  0.38688117     0.07700
C574        C  0.36166389  0.28992180  0.39664673    -0.02400
Br575      Br  0.37526032  0.30569935  0.44530825    -0.00900
Br576      Br  0.44979245  0.39061880  0.38774337    -0.01000
Br577      Br  0.24845001  0.16453292  0.33893065    -0.01000
Br578      Br  0.32450864  0.24108736  0.27851511    -0.00900
C579        C  0.22172852  0.28112857  0.35696959    -0.02100
C580        C  0.18930854  0.24852079  0.33002125     0.07600
C581        C  0.19956082  0.26827241  0.29614520    -0.02200
C582        C  0.23743119  0.32006720  0.29014479    -0.02200
C583        C  0.27466111  0.34966817  0.31565820     0.07700
C584        C  0.26585121  0.33011180  0.34961455    -0.02400
Br585      Br  0.31054134  0.37227743  0.38639093    -0.00900
Br586      Br  0.20170556  0.26189603  0.40419698    -0.01000
Br587      Br  0.23258126  0.35403561  0.24915847    -0.01000
Br588      Br  0.15620794  0.22620589  0.25859689    -0.00900
O589        O  0.46371026  0.38394120  0.81660841    -0.75500
O590        O  0.39668759  0.34895418  0.77902093    -0.54400
C591        C  0.41717763  0.34961019  0.80814759     0.78200
O592        O  0.50197464  0.59722325  0.84212268    -0.60100
O593        O  0.57424137  0.64327648  0.80881843    -0.53100
C594        C  0.54874724  0.63569324  0.83730211     0.70200
O595        O  0.35414189  0.43708321  0.81950354    -0.74700
O596        O  0.33955885  0.38135174  0.77493233    -0.55200
C597        C  0.32595100  0.39339490  0.80321453     0.76200
O598        O  0.61236416  0.53572122  0.82092982    -0.59800
O599        O  0.63971649  0.60726347  0.78856126    -0.52900
C600        C  0.64467039  0.58373106  0.81432308     0.72800
Zr601      Zr  0.53571617  0.46282755  0.79272124     2.54700
O602        O  0.55611861  0.43295609  0.84575343    -0.80400
O603        O  0.58588886  0.42393177  0.77089289    -0.93800
Zr604      Zr  0.43784611  0.52044955  0.80698241     2.64700
O605        O  0.41228273  0.50820106  0.86768877    -0.98800
O606        O  0.38787483  0.56505093  0.80243533    -0.80800
O607        O  0.45588352  0.45701184  0.79099352    -0.84200
O608        O  0.52447226  0.53439324  0.80555298    -2.18900
O609        O  0.62314244  0.56558678  0.67789427    -0.67600
O610        O  0.63550458  0.62662608  0.71842231    -0.52100
C611        C  0.64922726  0.61175490  0.69117165     0.71200
O612        O  0.38770970  0.47158125  0.66618511    -0.60500
O613        O  0.34645437  0.40837855  0.70414843    -0.52500
C614        C  0.35277838  0.42489007  0.67336523     0.73000
O615        O  0.51202041  0.62997229  0.68378499    -0.71900
O616        O  0.57369267  0.66350920  0.72488538    -0.50500
C617        C  0.55791898  0.66361612  0.69413331     0.74400
O618        O  0.47732285  0.40577454  0.65895927    -0.67200
O619        O  0.40923124  0.36276047  0.69556340    -0.54400
C620        C  0.43308182  0.36635769  0.66720701     0.72800
Zr621      Zr  0.53937472  0.48477038  0.69155155     2.77500
O622        O  0.54761352  0.48990270  0.62884710    -0.97900
O623        O  0.59350159  0.44437916  0.69372251    -0.78800
Zr624      Zr  0.44368603  0.54489582  0.70453198     2.70100
O625        O  0.41943910  0.57998661  0.65574821    -0.80000
O626        O  0.37886483  0.56571402  0.72661668    -0.99100
Zr627      Zr  0.41566534  0.41940286  0.74123165     2.21500
Zr628      Zr  0.56379097  0.59058671  0.75753801     2.11100
O629        O  0.52933793  0.55746942  0.70160357    -2.47800
O630        O  0.45918460  0.47714975  0.69952585    -0.79800
O631        O  0.57874365  0.51986030  0.74625560    -0.72000
O632        O  0.39915030  0.48874877  0.75164185    -2.33000
O633        O  0.49882481  0.42543558  0.73804585    -2.29200
O634        O  0.47873254  0.58060130  0.76032392    -0.73800
H635        H  0.54075440  0.54761725  0.82748954     0.78200
H636        H  0.36243790  0.47748248  0.75175670     0.79300
H637        H  0.54855194  0.57870316  0.68231045     0.81500
H638        H  0.49659585  0.39237959  0.73419364     0.79200
H639        H  0.41357270  0.60195114  0.80650543     0.42200
H640        H  0.39165880  0.60201246  0.71965728     0.41200
H641        H  0.38134239  0.55772406  0.65322379     0.40800
H642        H  0.54804533  0.52238264  0.62282366     0.38800
H643        H  0.61876986  0.46062026  0.67461408     0.41900
H644        H  0.58209167  0.39853587  0.78869694     0.36700
H645        H  0.55666351  0.45674908  0.86397603     0.42800
H646        H  0.44369498  0.51405872  0.88044042     0.39200
H647        H  0.58334299  0.49666547  0.62403098     0.44100
H648        H  0.62256972  0.45186900  0.77284139     0.42900
H649        H  0.40799149  0.53828811  0.87376020     0.43000
H650        H  0.34751260  0.54505829  0.71229700     0.43400
O651        O  0.03444163  0.41296053  0.82012363    -0.75500
O652        O  0.99349256  0.35229793  0.77836052    -0.54400
C653        C  0.01514773  0.36569957  0.80782596     0.78200
O654        O  0.90614492  0.53984104  0.81908297    -0.60100
O655        O  0.96577962  0.60885106  0.78905870    -0.53100
C656        C  0.93510760  0.58893532  0.81455389     0.70200
O657        O  0.90015110  0.39860319  0.83464929    -0.74700
O658        O  0.91014985  0.34413605  0.79843822    -0.55200
C659        C  0.90245531  0.35738730  0.82894062     0.76200
O660        O  0.07319247  0.58937821  0.83088788    -0.59800
O661        O  0.05132837  0.63351679  0.79299546    -0.52900
C662        C  0.06922382  0.62966210  0.82212904     0.72800
Zr663      Zr  0.05098021  0.50311696  0.80251295     2.54700
O664        O  0.08380019  0.50686506  0.86065775    -0.80400
O665        O  0.14230985  0.53284464  0.79029721    -0.93800
Zr666      Zr  0.89717436  0.45918798  0.79428711     2.64700
O667        O  0.83151538  0.43697243  0.83946999    -0.98800
O668        O  0.80659333  0.41050527  0.77573911    -0.80800
O669        O  0.96580788  0.44414588  0.79219542    -0.84200
O670        O  0.98412204  0.52543673  0.80073242    -2.18900
O671        O  0.08166895  0.59631597  0.67090758    -0.67600
O672        O  0.06808020  0.64044701  0.71288168    -0.52100
C673        C  0.08023071  0.63656756  0.68163512     0.71200
O674        O  0.91084158  0.38926879  0.66167557    -0.60500
O675        O  0.89595788  0.33511404  0.70531627    -0.52500
C676        C  0.90316312  0.34508984  0.67309023     0.73000
O677        O  0.90619206  0.54529398  0.67632375    -0.71900
O678        O  0.95847356  0.60844263  0.71443928    -0.50500
C679        C  0.92732176  0.59221976  0.68876889     0.74400
O680        O  0.06143872  0.44092729  0.67527336    -0.67200
O681        O  0.00740520  0.37117513  0.70774400    -0.54400
C682        C  0.03988705  0.39305884  0.68304865     0.72800
Zr683      Zr  0.06293891  0.51576371  0.69987928     2.77500
O684        O  0.10522191  0.51877816  0.64507926    -0.97900
O685        O  0.15346377  0.55826496  0.71808382    -0.78800
Zr686      Zr  0.90751416  0.46319869  0.69123853     2.70100
O687        O  0.89470200  0.47099583  0.62991807    -0.80000
O688        O  0.81294941  0.41120096  0.69112839    -0.99100
Zr689      Zr  0.95814211  0.39436145  0.74647990     2.21500
Zr690      Zr  0.00073074  0.57446080  0.74886596     2.11100
O691        O  0.99313736  0.53341977  0.69494497    -2.47800
O692        O  0.97662611  0.44475170  0.69554773    -0.79800
O693        O  0.07161087  0.55852317  0.75329858    -0.72000
O694        O  0.88776038  0.41127360  0.74231437    -2.33000
O695        O  0.04721601  0.46167255  0.74923517    -2.29200
O696        O  0.91172161  0.50896352  0.74359608    -0.73800
H697        H  0.98545511  0.54201413  0.82232763     0.78200
H698        H  0.85514520  0.37923662  0.74077220     0.79300
H699        H  0.99470163  0.55386478  0.67533009     0.81500
H700        H  0.07057485  0.44783305  0.74950771     0.79200
H701        H  0.79369635  0.37498158  0.78452067     0.42200
H702        H  0.80220581  0.42040120  0.66931368     0.41200
H703        H  0.92783599  0.47784575  0.61896704     0.40800
H704        H  0.08502627  0.52530654  0.62745994     0.38800
H705        H  0.16739636  0.59500985  0.71179330     0.41900
H706        H  0.14619721  0.50205201  0.79411753     0.36700
H707        H  0.06459969  0.51891807  0.87550601     0.42800
H708        H  0.85007458  0.44318838  0.86169871     0.39200
H709        H  0.13934151  0.55095388  0.64606485     0.44100
H710        H  0.16138179  0.55640290  0.80974358     0.42900
H711        H  0.82057619  0.46347529  0.83850330     0.43000
H712        H  0.80579744  0.37532399  0.68724068     0.43400
O713        O  0.39988572  0.91552732  0.83060269    -0.75500
O714        O  0.35755325  0.94594713  0.79761583    -0.54400
C715        C  0.36250724  0.92511350  0.82527856     0.78200
O716        O  0.62873522  0.07617359  0.82936781    -0.60100
O717        O  0.65616205  0.04265609  0.78712772    -0.53100
C718        C  0.66106332  0.06213150  0.81729066     0.70200
O719        O  0.46913481  0.07082762  0.83767693    -0.74700
O720        O  0.40463604  0.05038274  0.79920452    -0.55200
C721        C  0.42421705  0.06503805  0.82941544     0.76200
O722        O  0.54289980  0.90312106  0.80942967    -0.59800
O723        O  0.60685991  0.94550925  0.76955079    -0.52900
C724        C  0.58834529  0.91743333  0.79637537     0.72800
Zr725      Zr  0.46864857  0.91593439  0.79410176     2.54700
O726        O  0.46012943  0.87254929  0.84885555    -0.80400
O727        O  0.41239768  0.82658826  0.77618715    -0.93800
Zr728      Zr  0.54472173  0.07046777  0.80962987     2.64700
O729        O  0.54100889  0.06609078  0.87238619    -0.98800
O730        O  0.59334761  0.16428302  0.81536481    -0.80800
O731        O  0.46444788  0.99241741  0.80460330    -0.84200
O732        O  0.54821995  0.99398474  0.79951254    -2.18900
O733        O  0.54159293  0.93078815  0.66294706    -0.67600
O734        O  0.61401222  0.97575343  0.69504600    -0.52100
C735        C  0.59102435  0.94887449  0.66828889     0.71200
O736        O  0.46733770  0.09113563  0.68253285    -0.60500
O737        O  0.40061617  0.05370525  0.72039355    -0.52500
C738        C  0.42024137  0.07656293  0.69186471     0.73000
O739        O  0.62282721  0.10488180  0.67790263    -0.71900
O740        O  0.66000299  0.07838534  0.71717832    -0.50500
C741        C  0.65878105  0.09504489  0.68716884     0.74400
O742        O  0.39066541  0.93698267  0.66930215    -0.67200
O743        O  0.35523684  0.96284454  0.71143179    -0.54400
C744        C  0.35481198  0.94613779  0.68059387     0.72800
Zr745      Zr  0.46835862  0.93678721  0.69255490     2.77500
O746        O  0.44591496  0.91187820  0.63254069    -0.97900
O747        O  0.42121724  0.84328760  0.69956615    -0.78800
Zr748      Zr  0.54343129  0.09182776  0.70836802     2.70100
O749        O  0.56369010  0.15044874  0.65971562    -0.80000
O750        O  0.58627096  0.17735435  0.73509652    -0.99100
Zr751      Zr  0.42180306  0.00192797  0.75589338     2.21500
Zr752      Zr  0.58882752  0.00725262  0.74451675     2.11100
O753        O  0.54756464  0.01595832  0.69430661    -2.47800
O754        O  0.47049426  0.01223264  0.70825363    -0.79800
O755        O  0.51202385  0.92527366  0.74004918    -0.72000
O756        O  0.50028615  0.08328989  0.76216151    -2.33000
O757        O  0.42172295  0.92247690  0.74589858    -2.29200
O758        O  0.57958468  0.07712328  0.75574383    -0.73800
H759        H  0.56659099  0.98957124  0.81837268     0.78200
H760        H  0.49350369  0.11155236  0.76625199     0.79300
H761        H  0.56431089  0.01926274  0.67247835     0.81500
H762        H  0.38669583  0.89357006  0.74448975     0.79200
H763        H  0.62287380  0.17125665  0.83067825     0.42200
H764        H  0.61894191  0.19711792  0.72180453     0.41200
H765        H  0.56369011  0.13034726  0.63921469     0.40800
H766        H  0.47302949  0.94123290  0.61926138     0.38800
H767        H  0.44853248  0.83327607  0.69890824     0.41900
H768        H  0.38916052  0.81013861  0.79623880     0.36700
H769        H  0.47379780  0.90075142  0.86629536     0.42800
H770        H  0.54899886  0.03845250  0.87827757     0.39200
H771        H  0.45250999  0.88271715  0.62857442     0.44100
H772        H  0.43556757  0.81140803  0.77569874     0.42900
H773        H  0.57141216  0.09872909  0.88027085     0.43000
H774        H  0.56463990  0.19279225  0.72845518     0.43400
C775        C  0.06173007  0.12793363  0.86048999     0.02900
C776        C  0.03031324  0.15221159  0.86024389    -0.13200
C777        C  0.05081514  0.20391777  0.84873232     0.00400
C778        C  0.10041058  0.22946296  0.83502017    -0.11800
C779        C  0.13406483  0.21003675  0.83750763     0.02900
C780        C  0.11486506  0.15884983  0.84977268    -0.11200
H781        H  0.99238809  0.13320098  0.87250884     0.08500
H782        H  0.11522569  0.26842953  0.82516490     0.06000
H783        H  0.14191629  0.14498162  0.85416746     0.05900
C784        C  0.11365466  0.21410342  0.56768679     0.02900
C785        C  0.16813056  0.24588235  0.56626156    -0.13200
C786        C  0.19155747  0.29364734  0.58380906     0.00400
C787        C  0.16046994  0.31149215  0.59879070    -0.11800
C788        C  0.10706973  0.27938498  0.60113082     0.02900
C789        C  0.08364731  0.23031927  0.58632335    -0.11200
H790        H  0.19201371  0.23187768  0.55433546     0.08500
H791        H  0.17846121  0.34822144  0.61257506     0.06000
H792        H  0.04258476  0.20481267  0.58960692     0.05900
C793        C  0.09430772  0.86491303  0.56316100     0.02900
C794        C  0.07426158  0.81155856  0.56894998    -0.13200
C795        C  0.10536579  0.79433485  0.58580287     0.00400
C796        C  0.15654958  0.82961303  0.59476672    -0.11800
C797        C  0.17549456  0.88233508  0.59265279     0.02900
C798        C  0.14479324  0.90015476  0.57661685    -0.11200
H799        H  0.03512869  0.78421337  0.56119517     0.08500
H800        H  0.17953911  0.81605860  0.60840672     0.06000
H801        H  0.16014826  0.94150122  0.57496036     0.05900
C802        C  0.89071543  0.09491289  0.58260666     0.02900
C803        C  0.91958581  0.14989381  0.58492673    -0.13200
C804        C  0.89406565  0.17877182  0.59215258     0.00400
C805        C  0.84022492  0.15234957  0.59507775    -0.11800
C806        C  0.81257693  0.09884885  0.59751339     0.02900
C807        C  0.83687087  0.06990349  0.58936512    -0.11200
H808        H  0.96088009  0.16987475  0.58085946     0.08500
H809        H  0.82065386  0.17377405  0.60237434     0.06000
H810        H  0.81427997  0.02824945  0.58891598     0.05900
C811        C  0.91868465  0.13206964  0.92885129     0.02900
C812        C  0.87315173  0.09443806  0.91139711    -0.13200
C813        C  0.84405849  0.10886869  0.89084506     0.00400
C814        C  0.86177338  0.16053439  0.88509768    -0.11800
C815        C  0.89873297  0.19911952  0.90654670     0.02900
C816        C  0.93008040  0.18512449  0.92765485    -0.11200
H817        H  0.85942115  0.05343917  0.91413280     0.08500
H818        H  0.84080069  0.16972984  0.86607461     0.06000
H819        H  0.96046427  0.21328725  0.94399892     0.05900
C820        C  0.23324675  0.13042944  0.94460939     0.02900
C821        C  0.25372087  0.17907086  0.92899907    -0.13200
C822        C  0.30029286  0.19935253  0.91007804     0.00400
C823        C  0.32798287  0.17302079  0.90809456    -0.11800
C824        C  0.30764939  0.12349171  0.92101731     0.02900
C825        C  0.26074376  0.10236724  0.94010160    -0.11200
H826        H  0.23252229  0.19965394  0.93039069     0.08500
H827        H  0.36288595  0.18882427  0.89219964     0.06000
H828        H  0.24434238  0.06305566  0.94931518     0.05900
C829        C  0.11049591  0.89103875  0.91437815     0.02900
C830        C  0.07685590  0.83767807  0.90708123    -0.13200
C831        C  0.09644931  0.80261806  0.90827525     0.00400
C832        C  0.14684397  0.82132989  0.92039884    -0.11800
C833        C  0.18361729  0.87207624  0.91311909     0.02900
C834        C  0.16529680  0.90845681  0.91405561    -0.11200
H835        H  0.03651915  0.82375827  0.90105371     0.08500
H836        H  0.15962921  0.79435953  0.92701607     0.06000
H837        H  0.19280279  0.94936164  0.91425865     0.05900
C838        C  0.20058005  0.09961164  0.58937563     0.02900
C839        C  0.23084513  0.15479910  0.59066421    -0.13200
C840        C  0.28521106  0.17945326  0.59795727     0.00400
C841        C  0.30830103  0.14859960  0.60033331    -0.11800
C842        C  0.27825205  0.09524929  0.60405270     0.02900
C843        C  0.22487336  0.07063351  0.59752925    -0.11200
H844        H  0.21258198  0.17770734  0.58576561     0.08500
H845        H  0.34953959  0.16703705  0.60635134     0.06000
H846        H  0.20214711  0.02886528  0.59910503     0.05900
O847        O  0.06303384  0.12389976  0.57266391    -0.86700
O848        O  0.02124771  0.03850201  0.88679052    -0.86900
O849        O  0.14927841  0.12436801  0.96005171    -0.88500
O850        O  0.99569409  0.12889834  0.95274704    -0.87300
O851        O  0.91216935  0.06648468  0.96498848    -0.86900
O852        O  0.16853561  0.06187750  0.97570597    -0.88300
O853        O  0.07096349  0.11517877  0.91640142    -0.86700
O854        O  0.08974512  0.16068568  0.51865877    -0.86300
Zr855      Zr  0.05424217  0.09413862  0.97443565     2.84300
O856        O  0.97610960  0.02780520  0.95027869    -1.08300
O857        O  0.07512283  0.05962806  0.52148377    -1.09000
C858        C  0.08758550  0.16269783  0.55195767     1.06400
C859        C  0.05053984  0.08969951  0.88888751     1.06300
C860        C  0.18063128  0.10503761  0.96162764     1.09300
C861        C  0.94509564  0.10968440  0.95112819     1.07100
H862        H  0.09108800  0.03727132  0.93427510     0.32700
O863        O  0.06542945  0.02614663  0.95247754    -1.29300
H864        H  0.98605343  0.09085465  0.52389052     0.32300
O865        O  0.98970978  0.06128733  0.51800045    -1.30900
O866        O  0.93676411  0.86561072  0.92500414    -0.86700
O867        O  0.97051315  0.95008005  0.60999397    -0.88200
O868        O  0.11071033  0.94962989  0.95605975    -0.86800
O869        O  0.84953157  0.94281944  0.94946281    -0.86800
O870        O  0.89275952  0.04061467  0.53936819    -0.86500
O871        O  0.14907766  0.04816715  0.54443663    -0.86400
O872        O  0.01553137  0.86687005  0.54253178    -0.86700
O873        O  0.86118886  0.87173904  0.54476388    -0.86200
O874        O  0.09796661  0.92974568  0.52865030    -0.87300
O875        O  0.83924123  0.93025832  0.52432585    -0.86400
O876        O  0.04914216  0.92548370  0.91334866    -0.86800
O877        O  0.10641385  0.06694533  0.58697819    -0.86500
O878        O  0.95258974  0.06302750  0.58322940    -0.86200
O879        O  0.89468349  0.92436743  0.90851661    -0.86600
O880        O  0.91783581  0.83006826  0.97978570    -0.86900
O881        O  0.94258650  0.87371113  0.57981796    -0.88200
Zr882      Zr  0.98759148  0.95985888  0.92891096     2.83100
Zr883      Zr  0.01352665  0.02977782  0.56726229     2.83500
Zr884      Zr  0.08944589  0.99497989  0.49983642     2.84100
Zr885      Zr  0.91233128  0.99526728  0.49436129     2.83400
Zr886      Zr  0.95297664  0.89801894  0.52278401     2.84200
O887        O  0.93764159  0.96430760  0.54195523    -1.08800
O888        O  0.01440133  0.92951223  0.97692506    -1.08300
C889        C  0.91631182  0.82741997  0.94652990     1.06400
C890        C  0.94886993  0.89866608  0.60771211     1.09000
C891        C  0.08915036  0.92518715  0.92783944     1.06500
C892        C  0.85154271  0.91994183  0.92133516     1.06900
C893        C  0.91351300  0.06376179  0.56810983     1.06500
C894        C  0.14827007  0.07047288  0.57284293     1.06000
C895        C  0.06634666  0.88710349  0.54316613     1.06500
C896        C  0.82960740  0.89079626  0.54257446     1.06000
H897        H  0.04299303  0.95491703  0.56547738     0.32700
O898        O  0.03006869  0.96539411  0.54605475    -1.29900
H899        H  0.89489278  0.90009552  0.96947910     0.32700
O900        O  0.92766397  0.92966694  0.97563393    -1.31300
C901        C  0.77890818  0.87029053  0.56243921     0.02900
C902        C  0.75655559  0.90318561  0.56580349    -0.13200
C903        C  0.70800186  0.88596838  0.58175996     0.00400
C904        C  0.68009003  0.83528442  0.59256082    -0.11800
C905        C  0.70328488  0.80467113  0.59448262     0.02900
C906        C  0.75310573  0.82186908  0.57935655    -0.11200
H907        H  0.77760713  0.94302713  0.55736850     0.08500
H908        H  0.64276916  0.82234547  0.60521823     0.06000
H909        H  0.77205968  0.79922498  0.58143211     0.05900
C910        C  0.80090414  0.88836662  0.90192473     0.02900
C911        C  0.79000136  0.91374690  0.87547072    -0.13200
C912        C  0.74407368  0.88717381  0.85630197     0.00400
C913        C  0.71196378  0.83450195  0.86097738    -0.11800
C914        C  0.71300784  0.81060437  0.89149582     0.02900
C915        C  0.75984197  0.83728348  0.91191567    -0.11200
H916        H  0.81555081  0.95467780  0.87131780     0.08500
H917        H  0.67902338  0.81441887  0.84367903     0.06000
H918        H  0.76399824  0.81985856  0.93523874     0.05900
C919        C  0.92418569  0.85872468  0.63589963     0.02900
C920        C  0.86861268  0.83350324  0.63787051    -0.13200
C921        C  0.83839044  0.77862136  0.63979745     0.00400
C922        C  0.86281667  0.74944763  0.64057755    -0.11800
C923        C  0.91556556  0.77157573  0.64504217     0.02900
C924        C  0.94708291  0.82662445  0.64251084    -0.11200
H925        H  0.84896007  0.85564852  0.63432696     0.08500
H926        H  0.83914455  0.70751282  0.64228941     0.06000
H927        H  0.98891060  0.84391257  0.64200725     0.05900
C928        C  0.89252219  0.77593069  0.93205056     0.02900
C929        C  0.84101743  0.75054903  0.91977935    -0.13200
C930        C  0.82178998  0.70258002  0.90277255     0.00400
C931        C  0.85414704  0.68164883  0.89846333    -0.11800
C932        C  0.90518882  0.70765154  0.90994754     0.02900
C933        C  0.92418536  0.75384809  0.92791634    -0.11200
H934        H  0.81729761  0.76878656  0.92226322     0.08500
H935        H  0.84112581  0.64696171  0.88277081     0.06000
H936        H  0.96451487  0.77449750  0.93598173     0.05900
C937        C  0.70832547  0.94247345  0.62875619    -0.02100
C938        C  0.68947183  0.92049644  0.59613274     0.07600
C939        C  0.64143776  0.91410784  0.58509905    -0.02200
C940        C  0.61055166  0.92588163  0.60740700    -0.02200
C941        C  0.62538066  0.94044287  0.64249938     0.07700
C942        C  0.67594108  0.94955433  0.65242660    -0.02400
Br943      Br  0.70215589  0.96642533  0.69904270    -0.00900
Br944      Br  0.77746440  0.95766836  0.64232739    -0.01000
Br945      Br  0.54915273  0.92223493  0.58810781    -0.01000
Br946      Br  0.61707474  0.88560297  0.53956990    -0.00900
C947        C  0.74522058  0.10298239  0.67532704    -0.02100
C948        C  0.69782570  0.09652364  0.66210273     0.07600
C949        C  0.68455929  0.08016935  0.62712408    -0.02200
C950        C  0.71991902  0.07392308  0.60574465    -0.02200
C951        C  0.76614671  0.07942209  0.61964093     0.07700
C952        C  0.77620401  0.08965788  0.65516510    -0.02400
Br953      Br  0.83609788  0.09064156  0.67553540    -0.00900
Br954      Br  0.77152713  0.13511578  0.71996648    -0.01000
Br955      Br  0.70700895  0.05980989  0.55695674    -0.01000
Br956      Br  0.61882683  0.06563507  0.60753786    -0.00900
C957        C  0.74213529  0.05151129  0.82452956    -0.02100
C958        C  0.70516823  0.06469410  0.83912634     0.07600
C959        C  0.70875510  0.07461432  0.87546723    -0.02200
C960        C  0.74978855  0.07588958  0.89484868    -0.02200
C961        C  0.79071130  0.07323967  0.87829073     0.07700
C962        C  0.78442153  0.05642671  0.84414316    -0.02400
Br963      Br  0.83509409  0.04017324  0.82507324    -0.00900
Br964      Br  0.73944735  0.02722242  0.77785532    -0.01000
Br965      Br  0.75173920  0.08120682  0.94473323    -0.01000
Br966      Br  0.65976236  0.08749371  0.90038962    -0.00900
C967        C  0.64347282  0.92553471  0.84735619    -0.02100
C968        C  0.62569721  0.90608521  0.81378187     0.07600
C969        C  0.65456827  0.89029007  0.79302567    -0.02200
C970        C  0.70242736  0.89709280  0.80456156    -0.02200
C971        C  0.71811119  0.91219495  0.83892233     0.07700
C972        C  0.68923513  0.92796666  0.86005217    -0.02400
Br973      Br  0.70900073  0.94705865  0.90779950    -0.00900
Br974      Br  0.60430663  0.94674353  0.87663953    -0.01000
Br975      Br  0.74514212  0.88150045  0.77469390    -0.01000
Br976      Br  0.62555997  0.85522396  0.74987951    -0.00900
C977        C  0.29548750  0.06718597  0.65929249    -0.02100
C978        C  0.30299685  0.07064036  0.62331914     0.07600
C979        C  0.34835744  0.07371709  0.60935790    -0.02200
C980        C  0.38868229  0.07901131  0.63121451    -0.02200
C981        C  0.38343117  0.08092419  0.66770992     0.07700
C982        C  0.33687857  0.07698719  0.68129325    -0.02400
Br983      Br  0.33089425  0.09211749  0.72942816    -0.00900
Br984      Br  0.22911270  0.05204079  0.67876579    -0.01000
Br985      Br  0.45126481  0.08693878  0.60970617    -0.01000
Br986      Br  0.35521580  0.07351415  0.55968603    -0.00900
C987        C  0.26321672  0.93317059  0.66985732    -0.02100
C988        C  0.31056346  0.93780624  0.65658196     0.07600
C989        C  0.31493166  0.93546774  0.61983266    -0.02200
C990        C  0.27181564  0.92259930  0.59811077    -0.02200
C991        C  0.22479725  0.91559112  0.61181663     0.07700
C992        C  0.22205297  0.92440491  0.64731840    -0.02400
Br993      Br  0.15947735  0.92089614  0.66523796    -0.00900
Br994      Br  0.24991525  0.93342815  0.71894546    -0.01000
Br995      Br  0.27518544  0.91105797  0.54913397    -0.01000
Br996      Br  0.37894575  0.95033653  0.59721993    -0.00900
C997        C  0.27294887  0.86505454  0.84472966    -0.02100
C998        C  0.32069832  0.90890846  0.85152812     0.07600
C999        C  0.32735094  0.93546570  0.88325977    -0.02200
C1000       C  0.28319227  0.92510886  0.90380289    -0.02200
C1001       C  0.23424725  0.88161798  0.89613345     0.08500
C1002       C  0.23382609  0.84716550  0.86985971    -0.02400
Br1003     Br  0.20195913  0.77344103  0.87614550    -0.00900
Br1004     Br  0.26409777  0.82443420  0.80342872    -0.01000
Br1005     Br  0.29131646  0.96556825  0.94472485    -0.01000
Br1006     Br  0.39644285  0.98080913  0.90013517    -0.00900
C1007       C  0.33674477  0.05078390  0.85311420    -0.02100
C1008       C  0.39208519  0.07410655  0.85644445     0.07600
C1009       C  0.41537817  0.10414144  0.88679921    -0.02200
C1010       C  0.38469041  0.11157215  0.91190344    -0.02200
C1011       C  0.33137790  0.09341081  0.90621493     0.07700
C1012       C  0.30733559  0.06135521  0.87741234    -0.02400
Br1013     Br  0.23409992  0.03589833  0.86929498    -0.00900
Br1014     Br  0.29807865  0.00438490  0.81555155    -0.01000
Br1015     Br  0.41593838  0.15022737  0.95372637    -0.01000
Br1016     Br  0.48982892  0.14014908  0.89394692    -0.00900
C1017       C  0.06917543  0.71318333  0.66448757    -0.02100
C1018       C  0.08640800  0.67729360  0.65601920     0.07600
C1019       C  0.10352395  0.67730627  0.62145056    -0.02200
C1020       C  0.10039366  0.70970757  0.59614144    -0.02200
C1021       C  0.08421792  0.74538108  0.60517328     0.07700
C1022       C  0.06881513  0.74680904  0.63937237    -0.02400
Br1023     Br  0.05524244  0.80150416  0.65325893    -0.00900
Br1024     Br  0.04879806  0.72192998  0.71052688    -0.01000
Br1025     Br  0.12273407  0.70928778  0.54919380    -0.01000
Br1026     Br  0.13821286  0.63920345  0.60846506    -0.00900
C1027       C  0.93304065  0.65264224  0.64034834    -0.02100
C1028       C  0.91759567  0.63317468  0.67411789     0.07600
C1029       C  0.90579967  0.66233363  0.69765818    -0.02200
C1030       C  0.91761614  0.71324744  0.68979927    -0.02200
C1031       C  0.93061918  0.73226795  0.65566868     0.07700
C1032       C  0.93448158  0.69929315  0.63049961    -0.02400
Br1033     Br  0.93486607  0.71443784  0.58223409    -0.00900
Br1034     Br  0.95270251  0.61613245  0.60781741    -0.01000
Br1035     Br  0.91132288  0.75542328  0.72536977    -0.01000
Br1036     Br  0.86780096  0.62952041  0.73928193    -0.00900
C1037       C  0.95478070  0.67790478  0.83382525    -0.02100
C1038       C  0.93832970  0.62536141  0.84191770     0.07600
C1039       C  0.93107605  0.61008215  0.87721729    -0.02200
C1040       C  0.93297633  0.64446701  0.90278244    -0.02200
C1041       C  0.93922538  0.69234339  0.89318345     0.07700
C1042       C  0.95395737  0.71076370  0.85938846    -0.02400
Br1043     Br  0.96034464  0.77660847  0.84639585    -0.00900
Br1044     Br  0.97629417  0.70720707  0.78822085    -0.01000
Br1045     Br  0.91749802  0.62365723  0.95054942    -0.01000
Br1046     Br  0.91851350  0.54306062  0.89220847    -0.00900
C1047       C  0.09258535  0.72260213  0.83170145    -0.02100
C1048       C  0.08014442  0.67409349  0.84643935     0.07600
C1049       C  0.06826075  0.66737482  0.88227122    -0.02200
C1050       C  0.06812287  0.70767655  0.90225103    -0.02200
C1051       C  0.07708636  0.75442202  0.88673092     0.07700
C1052       C  0.08812538  0.76075029  0.85093643    -0.02400
Br1053     Br  0.10469921  0.82520350  0.82862685    -0.00900
Br1054     Br  0.12435057  0.74108340  0.78633969    -0.01000
Br1055     Br  0.05970007  0.70098089  0.95179707    -0.01000
Br1056     Br  0.05492574  0.60476888  0.90509881    -0.00900
C1057       C  0.90109486  0.30516468  0.61314306    -0.02100
C1058       C  0.90823107  0.30635897  0.64956397     0.07600
C1059       C  0.92335771  0.27114510  0.66331478    -0.02200
C1060       C  0.93259990  0.23820021  0.64160306    -0.02200
C1061       C  0.91901165  0.23268760  0.60655066     0.07700
C1062       C  0.90588152  0.26829433  0.59213253    -0.02400
Br1063     Br  0.88947251  0.26222041  0.54353150    -0.00900
Br1064     Br  0.87912524  0.34944417  0.59153386    -0.01000
Br1065     Br  0.95905390  0.19578455  0.66073240    -0.01000
Br1066     Br  0.92685417  0.26087184  0.71204779    -0.00900
C1067       C  0.08209798  0.29751852  0.65809389    -0.02100
C1068       C  0.07807076  0.29757151  0.62189006     0.07600
C1069       C  0.05901124  0.32681401  0.60572349    -0.02200
C1070       C  0.04736106  0.35919995  0.62564864    -0.02200
C1071       C  0.05310782  0.36050854  0.66194373     0.07700
C1072       C  0.07049276  0.32967917  0.67818662    -0.02400
Br1073     Br  0.08447785  0.33592713  0.72733199    -0.00900
Br1074     Br  0.10379825  0.25345491  0.68000529    -0.01000
Br1075     Br  0.02600759  0.40304804  0.60267539    -0.01000
Br1076     Br  0.05109287  0.32361095  0.55610729    -0.00900
C1077       C  0.05465809  0.28669343  0.86669883    -0.02100
C1078       C  0.02567534  0.23676006  0.85162517     0.07600
C1079       C  0.98535534  0.22779124  0.82916272    -0.02200
C1080       C  0.97718796  0.26877904  0.81960910    -0.02200
C1081       C  0.01485375  0.32162219  0.82765610     0.07700
C1082       C  0.05267411  0.32961411  0.85278606    -0.02400
Br1083     Br  0.10465745  0.39830795  0.86678722    -0.00900
Br1084     Br  0.10121308  0.29637871  0.90423962    -0.01000
Br1085     Br  0.91143792  0.24811587  0.79783388    -0.01000
Br1086     Br  0.94507401  0.16043958  0.80815765    -0.00900
C1087       C  0.94252563  0.29940957  0.90255165    -0.02100
C1088       C  0.89798666  0.25016894  0.90448861     0.07600
C1089       C  0.85080777  0.24838054  0.89443452    -0.02200
C1090       C  0.85112212  0.28109306  0.86822369    -0.02200
C1091       C  0.89838002  0.32452568  0.85926132     0.07700
C1092       C  0.94098725  0.33791485  0.88171884    -0.02400
Br1093     Br  0.98916944  0.40941863  0.88993156    -0.00900
Br1094     Br  0.99833805  0.31778587  0.93453320    -0.01000
Br1095     Br  0.78734831  0.26787001  0.84630027    -0.01000
Br1096     Br  0.78722573  0.20389852  0.91807766    -0.00900
C1097       C  0.61385194  0.66786167  0.88716595    -0.02100
C1098       C  0.57767182  0.67339742  0.86619117     0.07600
C1099       C  0.57572183  0.71931563  0.87001725    -0.02200
C1100       C  0.61430757  0.76069208  0.88971713    -0.02200
C1101       C  0.66114852  0.76130542  0.89914337     0.07700
C1102       C  0.65671552  0.71221656  0.90264007    -0.02400
Br1103     Br  0.70207650  0.70524600  0.93449508    -0.00900
Br1104     Br  0.60011618  0.59934562  0.89789750    -0.01000
Br1105     Br  0.60444135  0.81747520  0.90279653    -0.01000
Br1106     Br  0.52152799  0.72606816  0.84750365    -0.00900
C1107       C  0.73991969  0.62175190  0.88946091    -0.02100
C1108       C  0.77155664  0.67544467  0.88450745     0.07600
C1109       C  0.76078704  0.69946323  0.85717009    -0.02200
C1110       C  0.71622962  0.67069205  0.83693858    -0.02200
C1111       C  0.68906778  0.61526947  0.83827724     0.07700
C1112       C  0.70344080  0.59130999  0.86425264    -0.02400
Br1113     Br  0.67873990  0.51784233  0.86480393    -0.00900
Br1114     Br  0.74828536  0.58966042  0.93046707    -0.01000
Br1115     Br  0.69339928  0.71090071  0.81048208    -0.01000
Br1116     Br  0.80921658  0.77043568  0.84481466    -0.00900
C1117       C  0.74881556  0.70648977  0.62607661    -0.02100
C1118       C  0.78247405  0.74712737  0.64886549     0.07600
C1119       C  0.77266017  0.73982181  0.68462795    -0.02200
C1120       C  0.73567478  0.69117474  0.69712779    -0.02200
C1121       C  0.69796572  0.65344994  0.67496758     0.07700
C1122       C  0.70454000  0.66183072  0.63894768    -0.02400
Br1123     Br  0.65594481  0.61155174  0.60690325    -0.00900
Br1124     Br  0.76822110  0.70706470  0.57822236    -0.01000
Br1125     Br  0.74441217  0.67230267  0.74312460    -0.01000
Br1126     Br  0.81616052  0.79351698  0.71711852    -0.00900
C1127       C  0.68333898  0.77308993  0.65450566    -0.02100
C1128       C  0.67622797  0.76119745  0.61895261     0.07600
C1129       C  0.63054885  0.71715348  0.60793164    -0.02200
C1130       C  0.59141159  0.68599607  0.63191099    -0.02200
C1131       C  0.59736116  0.69901016  0.66797092     0.07700
C1132       C  0.64532332  0.74201273  0.67889799    -0.02400
Br1133     Br  0.66127843  0.76127892  0.72704565    -0.00900
Br1134     Br  0.74292925  0.83676077  0.66941291    -0.01000
Br1135     Br  0.53159904  0.62498001  0.61338943    -0.01000
Br1136     Br  0.62052043  0.70251303  0.55889507    -0.00900
C1137       C  0.31668442  0.40401777  0.61164003    -0.02100
C1138       C  0.31876355  0.38750253  0.64582715     0.07600
C1139       C  0.28729513  0.33353564  0.65354402    -0.02200
C1140       C  0.25062468  0.29968997  0.62955788    -0.02200
C1141       C  0.24475223  0.31818029  0.59758314     0.07700
C1142       C  0.27994991  0.36909865  0.58778595    -0.02400
Br1143     Br  0.27264925  0.39164761  0.54252085    -0.00900
Br1144     Br  0.36096946  0.47428404  0.59636471    -0.01000
Br1145     Br  0.20119118  0.22942205  0.64317682    -0.01000
Br1146     Br  0.28982184  0.30241549  0.69694129    -0.00900
C1147       C  0.38869849  0.32284505  0.61025369    -0.02100
C1148       C  0.40466161  0.32015332  0.64429896     0.07600
C1149       C  0.37936777  0.27235888  0.66128427    -0.02200
C1150       C  0.33239607  0.23260177  0.64853181    -0.02200
C1151       C  0.31773579  0.23226559  0.61383132     0.07700
C1152       C  0.34762672  0.27773184  0.59421258    -0.02400
Br1153     Br  0.33157595  0.27846046  0.54624547    -0.00900
Br1154     Br  0.42284540  0.38753821  0.58598754    -0.01000
Br1155     Br  0.28682114  0.17988595  0.67987149    -0.01000
Br1156     Br  0.40887903  0.26159856  0.70279336    -0.00900
C1157       C  0.39181405  0.32550124  0.87049874    -0.02100
C1158       C  0.38347356  0.31168456  0.83478579     0.07600
C1159       C  0.33939736  0.26382963  0.82519766    -0.02200
C1160       C  0.30620077  0.23035954  0.85080616    -0.02200
C1161       C  0.31788156  0.24259189  0.88600891     0.07700
C1162       C  0.36007520  0.29021348  0.89576369    -0.02400
Br1163     Br  0.37627266  0.30487934  0.94430083    -0.00900
Br1164     Br  0.44405522  0.39327143  0.88658970    -0.01000
Br1165     Br  0.24779933  0.16399048  0.83807280    -0.01000
Br1166     Br  0.32506870  0.24014854  0.77772253    -0.00900
C1167       C  0.22139304  0.28241664  0.85702302    -0.02100
C1168       C  0.18937845  0.24965185  0.83000101     0.07600
C1169       C  0.19971188  0.26928997  0.79610875    -0.02200
C1170       C  0.23730253  0.32112448  0.79011154    -0.02200
C1171       C  0.27424943  0.35093673  0.81572352     0.07700
C1172       C  0.26522168  0.33160781  0.84973614    -0.02400
Br1173     Br  0.30886874  0.37445578  0.88667448    -0.00900
Br1174     Br  0.20133096  0.26299333  0.90422199    -0.01000
Br1175     Br  0.23245488  0.35472103  0.74890293    -0.01000
Br1176     Br  0.15671899  0.22695276  0.75852242    -0.00900
loop_ 
_geom_bond_atom_site_label_1 
_geom_bond_atom_site_label_2 
_geom_bond_distance 
_geom_bond_site_symmetry_2 
_ccdc_geom_bond_type 
O1          Zr13   2.441       .  S
O1            C3   1.285       .  A
O2          Zr39   2.400       .  S
O2            C3   1.279       .  A
C3          C570   1.495       .  S
O4          Zr16   2.520       .  S
O4            C6   1.300       .  A
O5          Zr40   2.447       .  S
O5            C6   1.289       .  A
C6          C510   1.512       .  S
O7          Zr16   2.541       .  S
O7            C9   1.305       .  A
O8          Zr39   2.352       .  S
O8            C9   1.273       .  A
C9          C583   1.504       .  S
O10         Zr13   2.480       .  S
O10          C12   1.292       .  A
O11         Zr40   2.374       .  S
O11          C12   1.272       .  A
C12         C523   1.499       .  S
Zr13         O14   2.433       .  S
Zr13         O15   2.435       .  S
Zr13         O19   2.282       .  S
Zr13         O20   2.366       .  S
Zr13         O43   2.364       .  S
Zr13         O45   2.386       .  S
O14          H57   0.990       .  S
O15          H56   0.990       .  S
O15          H60   0.990       .  S
Zr16         O17   2.437       .  S
Zr16         O18   2.434       .  S
Zr16         O19   2.281       .  S
Zr16         O20   2.384       .  S
Zr16         O44   2.390       .  S
Zr16         O46   2.412       .  S
O17          H58   0.990       .  S
O17          H61   0.991       .  S
O18          H51   0.990       .  S
O19         Zr39   2.243       .  S
O20         Zr40   2.384       .  S
O20          H47   0.958       .  S
O21         Zr33   2.508       .  S
O21          C23   1.300       .  A
O22         Zr40   2.378       .  S
O22          C23   1.279       .  A
C23         C533   1.494       .  S
O24         Zr36   2.467       .  S
O24          C26   1.286       .  A
O25         Zr39   2.391       .  S
O25          C26   1.269       .  A
C26         C550   1.507       .  S
O27         Zr36   2.477       .  S
O27          C29   1.290       .  A
O28         Zr40   2.407       .  S
O28          C29   1.280       .  A
C29         C543   1.514       .  S
O30         Zr33   2.495       .  S
O30          C32   1.294       .  A
O31         Zr39   2.373       .  S
O31          C32   1.277       .  A
C32         C560   1.494       .  S
Zr33         O34   2.434       .  S
Zr33         O35   2.434       .  S
Zr33         O42   2.286       .  S
Zr33         O41   2.354       .  S
Zr33         O45   2.392       .  S
Zr33         O43   2.392       .  S
O34          H54   0.990       .  S
O34          H59   0.990       .  S
O35          H55   0.990       .  S
Zr36         O37   2.438       .  S
Zr36         O38   2.437       .  S
Zr36         O42   2.283       .  S
Zr36         O41   2.369       .  S
Zr36         O46   2.400       .  S
Zr36         O44   2.390       .  S
O37          H53   0.990       .  S
O38          H52   0.990       .  S
O38          H62   0.990       .  S
Zr39         O42   2.247       .  S
Zr39         O44   2.375       .  S
Zr39         O45   2.380       .  S
Zr40         O41   2.385       .  S
Zr40         O43   2.393       .  S
Zr40         O46   2.382       .  S
O41          H49   0.961       .  S
O44          H48   0.965       .  S
O45          H50   0.963       .  S
O63         Zr75   2.569       .  S
O63          C65   1.314       .  A
O64        Zr101   2.344       .  S
O64          C65   1.270   1_655  A
C65         C493   1.517       .  S
O66         Zr78   2.470       .  S
O66          C68   1.290       .  A
O67        Zr102   2.351   1_655  S
O67          C68   1.270       .  A
C68         C450   1.477       .  S
O69         Zr78   2.432       .  S
O69          C71   1.280       .  A
O70        Zr101   2.488       .  S
O70          C71   1.295       .  A
C71         C503   1.500       .  S
O72         Zr75   2.545       .  S
O72          C74   1.306       .  A
O73        Zr102   2.373       .  S
O73          C74   1.278       .  A
C74         C460   1.515       .  S
Zr75         O76   2.434       .  S
Zr75         O77   2.435       .  S
Zr75         O81   2.285   1_455  S
Zr75         O82   2.381   1_455  S
Zr75        O105   2.397       .  S
Zr75        O107   2.369       .  S
O76         H119   0.988       .  S
O77         H118   0.990       .  S
O77         H122   0.990       .  S
Zr78         O79   2.443       .  S
Zr78         O80   2.440       .  S
Zr78         O81   2.288       .  S
Zr78         O82   2.356       .  S
Zr78        O106   2.394       .  S
Zr78        O108   2.366       .  S
O79         H120   0.988       .  S
O79         H123   0.990       .  S
O80         H113   0.991       .  S
O81        Zr101   2.237       .  S
O82        Zr102   2.389   1_655  S
O82         H109   0.958       .  S
O83         Zr95   2.461       .  S
O83          C85   1.286       .  A
O84        Zr102   2.422       .  S
O84          C85   1.278       .  A
C85         C430   1.512       .  S
O86         Zr98   2.516       .  S
O86          C88   1.299       .  A
O87        Zr101   2.409       .  S
O87          C88   1.277       .  A
C88         C470   1.528       .  S
O89         Zr98   2.526       .  S
O89          C91   1.303       .  A
O90        Zr102   2.376   1_655  S
O90          C91   1.277       .  A
C91         C440   1.496       .  S
O92         Zr95   2.395       .  S
O92          C94   1.277       .  A
O93        Zr101   2.403   1_455  S
O93          C94   1.280       .  A
C94         C483   1.453       .  S
Zr95         O96   2.436       .  S
Zr95         O97   2.433       .  S
Zr95        O103   2.379   1_455  S
Zr95        O104   2.384   1_455  S
Zr95        O107   2.398       .  S
Zr95        O105   2.365       .  S
O96         H116   0.990       .  S
O96         H121   0.990       .  S
O97         H117   0.990       .  S
Zr98         O99   2.434       .  S
Zr98        O100   2.433       .  S
Zr98        O104   2.369       .  S
Zr98        O103   2.359       .  S
Zr98        O108   2.400       .  S
Zr98        O106   2.400       .  S
O99         H115   0.991       .  S
O100        H114   0.990       .  S
O100        H124   0.990       .  S
Zr101       O104   2.374       .  S
Zr101       O106   2.376       .  S
Zr101       O107   2.396   1_655  S
Zr102       O103   2.365   1_455  S
Zr102       O105   2.374       .  S
Zr102       O108   2.382   1_455  S
O103        H111   0.961       .  S
O106        H110   0.965       .  S
O107        H112   0.964       .  S
O125       Zr137   2.467       .  S
O125        C127   1.290       .  A
O126       Zr163   2.417       .  S
O126        C127   1.284       .  A
C127        C410   1.486       .  S
O128       Zr140   2.529       .  S
O128        C130   1.303       .  A
O129       Zr164   2.387       .  S
O129        C130   1.274       .  A
C130        C370   1.525       .  S
O131       Zr140   2.485       .  S
O131        C133   1.295       .  A
O132       Zr163   2.407   1_545  S
O132        C133   1.279       .  A
C133        C420   1.517       .  S
O134       Zr137   2.498       .  S
O134        C136   1.296       .  A
O135       Zr164   2.355   1_565  S
O135        C136   1.274       .  A
C136        C380   1.475       .  S
Zr137       O138   2.435       .  S
Zr137       O139   2.434       .  S
Zr137       O143   2.277       .  S
Zr137       O144   2.352       .  S
Zr137       O167   2.387       .  S
Zr137       O169   2.401       .  S
O138        H181   0.990       .  S
O139        H180   0.990       .  S
O139        H184   0.990       .  S
Zr140       O141   2.429       .  S
Zr140       O142   2.434       .  S
Zr140       O143   2.277   1_545  S
Zr140       O144   2.360   1_545  S
Zr140       O168   2.397       .  S
Zr140       O170   2.384       .  S
O141        H182   0.989       .  S
O141        H185   0.990       .  S
O142        H175   0.990       .  S
O143       Zr163   2.257       .  S
O144       Zr164   2.380   1_565  S
O144        H171   0.960       .  S
O145       Zr157   2.526       .  S
O145        C147   1.301       .  A
O146       Zr164   2.388   1_565  S
O146        C147   1.275       .  A
C147        C353   1.520       .  S
O148       Zr160   2.448       .  S
O148        C150   1.286       .  A
O149       Zr163   2.371   1_545  S
O149        C150   1.275       .  A
C150        C393   1.485       .  S
O151       Zr160   2.474       .  S
O151        C153   1.289       .  A
O152       Zr164   2.370       .  S
O152        C153   1.274       .  A
C153        C360   1.482       .  S
O154       Zr157   2.476       .  S
O154        C156   1.292       .  A
O155       Zr163   2.435       .  S
O155        C156   1.286       .  A
C156        C400   1.527       .  S
Zr157       O158   2.430       .  S
Zr157       O159   2.433       .  S
Zr157       O166   2.292   1_565  S
Zr157       O165   2.366   1_565  S
Zr157       O169   2.400       .  S
Zr157       O167   2.376       .  S
O158        H178   0.989       .  S
O158        H183   0.990       .  S
O159        H179   0.990       .  S
Zr160       O161   2.436       .  S
Zr160       O162   2.433       .  S
Zr160       O166   2.291       .  S
Zr160       O165   2.372       .  S
Zr160       O170   2.377       .  S
Zr160       O168   2.387       .  S
O161        H177   0.990       .  S
O162        H176   0.991       .  S
O162        H186   0.990       .  S
Zr163       O166   2.259   1_565  S
Zr163       O168   2.391   1_565  S
Zr163       O169   2.390       .  S
Zr164       O165   2.379       .  S
Zr164       O167   2.381   1_545  S
Zr164       O170   2.375       .  S
O165        H173   0.959       .  S
O168        H172   0.968       .  S
O169        H174   0.966       .  S
C187        C271   1.502       .  S
C187        C188   1.433       .  A
C187        C192   1.435       .  A
C188        C189   1.420       .  A
C188        H193   1.083   1_455  S
C189        C490   1.497       .  S
C189        C190   1.380       .  A
C190        C191   1.380       .  A
C190        H194   1.088       .  S
C191        C580   1.498       .  S
C191        C192   1.422       .  A
C192        H195   1.081       .  S
C196        C270   1.460       .  S
C196        C197   1.409       .  A
C196        C201   1.398       .  A
C197        C198   1.406       .  A
C197        H202   1.083       .  S
C198        C553   1.471       .  S
C198        C199   1.391       .  A
C199        C200   1.387       .  A
C199        H203   1.086       .  S
C200        C480   1.456       .  S
C200        C201   1.391       .  A
C201        H204   1.075       .  S
C205        C307   1.506       .  S
C205        C206   1.412       .  A
C205        C210   1.432       .  A
C206        C207   1.417       .  A
C206        H211   1.077       .  S
C207        C433   1.475       .  S
C207        C208   1.392       .  A
C208        C209   1.381       .  A
C208        H212   1.087       .  S
C209        C403   1.490       .  S
C209        C210   1.405       .  A
C210        H213   1.083       .  S
C214        C305   1.495       .  S
C214        C215   1.424       .  A
C214        C219   1.408       .  A
C215        C216   1.422       .  A
C215        H220   1.074       .  S
C216        C473   1.498       .  S
C216        C217   1.387       .  A
C217        C218   1.387       .  A
C217        H221   1.088       .  S
C218        C363   1.470       .  S
C218        C219   1.402       .  A
C219        H222   1.077       .  S
C223        C273   1.528       .  S
C223        C224   1.424       .  A
C223        C228   1.444       .  A
C224        C225   1.392       .  A
C224        H229   1.084       .  S
C225        C373   1.482       .  S
C225        C226   1.377       .  A
C226        C227   1.398       .  A
C226        H230   1.085       .  S
C227        C500   1.534       .  S
C227        C228   1.448       .  A
C228        H231   1.078       .  S
C232        C272   1.504       .  S
C232        C233   1.403       .  A
C232        C237   1.435       .  A
C233        C234   1.405       .  A
C233        H238   1.072       .  S
C234        C573   1.466       .  S
C234        C235   1.388       .  A
C235        C236   1.384       .  A
C235        H239   1.087       .  S
C236        C423   1.496       .  S
C236        C237   1.413       .  A
C237        H240   1.083       .  S
C241        C303   1.523       .  S
C241        C242   1.418       .  A
C241        C246   1.440       .  A
C242        C243   1.420       .  A
C242        H247   1.077       .  S
C243        C463   1.498       .  S
C243        C244   1.390       .  A
C244        C245   1.385       .  A
C244        H248   1.075       .  S
C245        C413   1.530       .  S
C245        C246   1.434       .  A
C246        H249   1.078       .  S
C250        C306   1.488       .  S
C250        C251   1.431       .  A
C250        C255   1.405       .  A
C251        C252   1.426       .  A
C251        H256   1.079       .  S
C252        C563   1.508       .  S
C252        C253   1.393       .  A
C253        C254   1.392       .  A
C253        H257   1.087       .  S
C254        C390   1.469       .  S
C254        C255   1.394       .  A
C255        H258   1.084       .  S
O259       Zr295   2.448       .  S
O259        C270   1.297       .  A
O260       Zr294   2.624   1_445  S
O260        C271   1.332       .  A
O261       Zr267   2.555       .  S
O261        C272   1.314       .  A
O262       Zr267   2.565   1_655  S
O262        C273   1.313       .  A
O263       Zr885   2.410   1_545  S
O263        C273   1.287       .  A
O264       Zr884   2.363   1_545  S
O264        C272   1.275       .  A
O265       Zr267   2.311       .  S
O265        C271   1.269       .  A
O266       Zr855   2.433   1_554  S
O266        C270   1.292       .  A
Zr267       O854   2.434       .  S
Zr267       O268   2.365   1_455  S
Zr267       O275   2.359       .  S
Zr267       O857   2.327       .  S
Zr267       O865   2.340   1_455  S
O268       Zr294   2.355   1_545  S
O268       Zr885   2.335   1_545  S
O269       Zr295   2.378       .  S
O269       Zr296   2.317   1_545  S
O269       Zr855   2.331   1_554  S
H274        O275   0.964       .  S
O275       Zr294   2.342   1_445  S
O275       Zr884   2.334   1_545  S
H276        O277   0.963       .  S
O277       Zr295   2.385   1_655  S
O277       Zr297   2.335   1_544  S
O277       Zr855   2.340   1_654  S
O278       Zr294   2.451       .  S
O278        C301   1.297       .  A
O279       Zr295   2.656   1_665  S
O279        C302   1.338       .  A
O280       Zr884   2.428       .  S
O280        C303   1.287       .  A
O281       Zr885   2.481       .  S
O281        C304   1.298       .  A
O282       Zr297   2.427   1_544  S
O282        C305   1.289       .  A
O283       Zr296   2.423   1_545  S
O283        C306   1.288       .  A
O284       Zr298   2.561   1_455  S
O284        C307   1.313       .  A
O285       Zr298   2.564       .  S
O285        C308   1.314       .  A
O286       Zr296   2.364       .  S
O286        C307   1.277       .  A
O287       Zr297   2.365   1_554  S
O287        C308   1.278       .  A
O288       Zr294   2.561   1_455  S
O288        C303   1.317       .  A
O289       Zr295   2.507       .  S
O289        C306   1.305       .  A
O290       Zr295   2.525   1_655  S
O290        C305   1.309       .  A
O291       Zr294   2.521       .  S
O291        C304   1.309       .  A
O292       Zr886   2.406       .  S
O292        C301   1.287       .  A
O293       Zr298   2.295       .  S
O293        C302   1.266       .  A
Zr294       O300   2.374   1_655  S
Zr294       O312   2.375       .  S
Zr295       O299   2.329   1_445  S
Zr295       O310   2.341   1_545  S
Zr296       O852   2.363   1_564  S
Zr296       O868   2.437   1_554  S
Zr296       O310   2.347       .  S
Zr296       O863   2.337   1_564  S
Zr296       O888   2.319   1_554  S
Zr297       O851   2.401   1_565  S
Zr297       O869   2.472       .  S
Zr297       O299   2.345   1_556  S
Zr297       O856   2.334   1_565  S
Zr297       O900   2.323       .  S
Zr298       O880   2.412   1_554  S
Zr298       O299   2.345       .  S
Zr298       O310   2.343   1_655  S
Zr298       O888   2.344   1_654  S
Zr298       O900   2.334   1_554  S
O300       Zr884   2.317       .  S
O300       Zr886   2.347   1_455  S
C301        C340   1.442       .  S
C302        C331   1.513       .  S
C304        C322   1.513       .  S
C308        C313   1.513       .  S
H309        O310   0.966       .  S
H311        O312   0.962       .  S
O312       Zr885   2.323       .  S
O312       Zr886   2.336       .  S
C313        C314   1.432       .  A
C313        C318   1.414       .  A
C314        C315   1.404       .  A
C314        H319   1.082       .  S
C315        C350   1.484       .  S
C315        C316   1.379       .  A
C316        C317   1.387       .  A
C316        H320   1.088       .  S
C317        C540   1.479       .  S
C317        C318   1.421       .  A
C318        H321   1.072       .  S
C322        C323   1.405       .  A
C322        C327   1.450       .  A
C323        C324   1.399       .  A
C323        H328   1.082       .  S
C324        C383   1.477       .  S
C324        C325   1.388       .  A
C325        C326   1.394       .  A
C325        H329   1.086       .  S
C326        C513   1.536       .  S
C326        C327   1.442       .  A
C327        H330   1.081       .  S
C331        C332   1.431       .  A
C331        C336   1.444       .  A
C332        C333   1.423       .  A
C332        H337   1.083       .  S
C333        C530   1.482       .  S
C333        C334   1.378       .  A
C334        C335   1.371       .  A
C334        H338   1.090       .  S
C335        C443   1.503       .  S
C335        C336   1.431       .  A
C336        H339   1.080       .  S
C340        C341   1.406       .  A
C340        C345   1.393       .  A
C341        C342   1.406       .  A
C341        H346   1.082       .  S
C342        C520   1.472       .  S
C342        C343   1.384       .  A
C343        C344   1.385       .  A
C343        H347   1.087       .  S
C344        C453   1.443       .  S
C344        C345   1.383       .  A
C345        H348   1.083       .  S
C349        C350   1.402       .  A
C349        C354   1.408       .  A
C349       Br356   1.938       .  S
C350        C351   1.407       .  A
C351        C352   1.416       .  A
C351       Br358   1.930       .  S
C352        C353   1.424       .  A
C352       Br357   1.921       .  S
C353        C354   1.434       .  A
C354       Br355   1.932       .  S
C359        C360   1.411       .  A
C359        C364   1.397       .  A
C359       Br366   1.935       .  S
C360        C361   1.420       .  A
C361        C362   1.411       .  A
C361       Br368   1.927       .  S
C362        C363   1.404       .  A
C362       Br367   1.927       .  S
C363        C364   1.408       .  A
C364       Br365   1.927       .  S
C369        C370   1.443       .  A
C369        C374   1.410       .  A
C369       Br376   1.930       .  S
C370        C371   1.427       .  A
C371        C372   1.414       .  A
C371       Br378   1.924       .  S
C372        C373   1.402       .  A
C372       Br377   1.933       .  S
C373        C374   1.390       .  A
C374       Br375   1.929       .  S
C379        C380   1.411       .  A
C379        C384   1.409       .  A
C379       Br386   1.929       .  S
C380        C381   1.408       .  A
C381        C382   1.404       .  A
C381       Br388   1.926       .  S
C382        C383   1.404       .  A
C382       Br387   1.924       .  S
C383        C384   1.415       .  A
C384       Br385   1.934       .  S
C389        C390   1.404       .  A
C389        C394   1.401       .  A
C389       Br396   1.933       .  S
C390        C391   1.402       .  A
C391        C392   1.405       .  A
C391       Br398   1.930       .  S
C392        C393   1.421       .  A
C392       Br397   1.930       .  S
C393        C394   1.421       .  A
C394       Br395   1.940       .  S
C399        C400   1.432       .  A
C399        C404   1.416       .  A
C399       Br406   1.937       .  S
C400        C401   1.432       .  A
C401        C402   1.416       .  A
C401       Br408   1.925       .  S
C402        C403   1.401       .  A
C402       Br407   1.934       .  S
C403        C404   1.404       .  A
C404       Br405   1.928       .  S
C409        C410   1.394       .  A
C409        C414   1.400       .  A
C409       Br416   1.936       .  S
C410        C411   1.415       .  A
C411        C412   1.425       .  A
C411       Br418   1.922       .  S
C412        C413   1.416       .  A
C412       Br417   1.923       .  S
C413        C414   1.436       .  A
C414       Br415   1.928       .  S
C419        C420   1.433       .  A
C419        C424   1.414       .  A
C419       Br426   1.937   1_545  S
C420        C421   1.424       .  A
C421        C422   1.413       .  A
C421       Br428   1.933       .  S
C422        C423   1.411       .  A
C422       Br427   1.933       .  S
C423        C424   1.409       .  A
C424       Br425   1.935       .  S
C429        C430   1.430       .  A
C429        C434   1.404       .  A
C429       Br436   1.933       .  S
C430        C431   1.428       .  A
C431        C432   1.414       .  A
C431       Br438   1.931       .  S
C432        C433   1.404       .  A
C432       Br437   1.932       .  S
C433        C434   1.403       .  A
C434       Br435   1.933       .  S
C439        C440   1.410       .  A
C439        C444   1.422       .  A
C439       Br446   1.924       .  S
C440        C441   1.409       .  A
C441        C442   1.410       .  A
C441       Br448   1.931       .  S
C442        C443   1.416       .  A
C442       Br447   1.926       .  S
C443        C444   1.422       .  A
C444       Br445   1.922       .  S
C449        C450   1.424       .  A
C449        C454   1.395       .  A
C449       Br456   1.931       .  S
C450        C451   1.422       .  A
C451        C452   1.398       .  A
C451       Br458   1.931       .  S
C452        C453   1.396       .  A
C452       Br457   1.932       .  S
C453        C454   1.403       .  A
C454       Br455   1.942       .  S
C459        C460   1.424       .  A
C459        C464   1.410       .  A
C459       Br466   1.935       .  S
C460        C461   1.420       .  A
C461        C462   1.423       .  A
C461       Br468   1.923       .  S
C462        C463   1.417       .  A
C462       Br467   1.931       .  S
C463        C464   1.413       .  A
C464       Br465   1.938       .  S
C469        C470   1.424       .  A
C469        C474   1.422       .  A
C469       Br476   1.931       .  S
C470        C471   1.434       .  A
C471        C472   1.412       .  A
C471       Br478   1.926       .  S
C472        C473   1.402       .  A
C472       Br477   1.938       .  S
C473        C474   1.415       .  A
C474       Br475   1.930       .  S
C479        C480   1.407       .  A
C479        C484   1.395       .  A
C479       Br486   1.925       .  S
C480        C481   1.402       .  A
C481        C482   1.399       .  A
C481       Br488   1.930       .  S
C482        C483   1.413       .  A
C482       Br487   1.932       .  S
C483        C484   1.406       .  A
C484       Br485   1.936       .  S
C489        C490   1.419       .  A
C489        C494   1.416       .  A
C489       Br496   1.925       .  S
C490        C491   1.393   1_455  A
C491        C492   1.408       .  A
C491       Br498   1.927       .  S
C492        C493   1.440   1_655  A
C492       Br497   1.925       .  S
C493        C494   1.412       .  A
C494       Br495   1.928       .  S
C499        C500   1.406       .  A
C499        C504   1.424       .  A
C499       Br506   1.916       .  S
C500        C501   1.427       .  A
C501        C502   1.410       .  A
C501       Br508   1.914       .  S
C502        C503   1.400       .  A
C502       Br507   1.926       .  S
C503        C504   1.417       .  A
C504       Br505   1.909       .  S
C509        C510   1.420       .  A
C509        C514   1.431       .  A
C509       Br516   1.920       .  S
C510        C511   1.405       .  A
C511        C512   1.415       .  A
C511       Br518   1.924       .  S
C512        C513   1.423       .  A
C512       Br517   1.915       .  S
C513        C514   1.409       .  A
C514       Br515   1.913       .  S
C519        C520   1.409       .  A
C519        C524   1.402       .  A
C519       Br526   1.938       .  S
C520        C521   1.403       .  A
C521        C522   1.402       .  A
C521       Br528   1.938       .  S
C522        C523   1.435       .  A
C522       Br527   1.940       .  S
C523        C524   1.421       .  A
C524       Br525   1.932       .  S
C529        C530   1.424       .  A
C529        C534   1.416       .  A
C529       Br536   1.932       .  S
C530        C531   1.408       .  A
C531        C532   1.400       .  A
C531       Br538   1.933       .  S
C532        C533   1.412       .  A
C532       Br537   1.928       .  S
C533        C534   1.412       .  A
C534       Br535   1.924       .  S
C539        C540   1.407       .  A
C539        C544   1.408       .  A
C539       Br546   1.929       .  S
C540        C541   1.403       .  A
C541        C542   1.414       .  A
C541       Br548   1.935       .  S
C542        C543   1.433       .  A
C542       Br547   1.934       .  S
C543        C544   1.427       .  A
C544       Br545   1.934       .  S
C549        C550   1.426       .  A
C549        C554   1.410       .  A
C549       Br556   1.933       .  S
C550        C551   1.434       .  A
C551        C552   1.403       .  A
C551       Br558   1.942       .  S
C552        C553   1.404       .  A
C552       Br557   1.940       .  S
C553        C554   1.403       .  A
C554       Br555   1.931       .  S
C559        C560   1.419       .  A
C559        C564   1.431       .  A
C559       Br566   1.922       .  S
C560        C561   1.403       .  A
C561        C562   1.394       .  A
C561       Br568   1.935       .  S
C562        C563   1.411       .  A
C562       Br567   1.914       .  S
C563        C564   1.418       .  A
C564       Br565   1.921       .  S
C569        C570   1.428       .  A
C569        C574   1.406       .  A
C569       Br576   1.935       .  S
C570        C571   1.424       .  A
C571        C572   1.405       .  A
C571       Br578   1.934       .  S
C572        C573   1.406       .  A
C572       Br577   1.936       .  S
C573        C574   1.397       .  A
C574       Br575   1.932       .  S
C579        C580   1.422       .  A
C579        C584   1.424       .  A
C579       Br586   1.919       .  S
C580        C581   1.409       .  A
C581        C582   1.406       .  A
C581       Br588   1.930       .  S
C582        C583   1.414       .  A
C582       Br587   1.930       .  S
C583        C584   1.410       .  A
C584       Br585   1.923       .  S
O589       Zr601   2.441       .  S
O589        C591   1.286       .  A
O590       Zr627   2.391       .  S
O590        C591   1.277       .  A
C591       C1158   1.490       .  S
O592       Zr604   2.521       .  S
O592        C594   1.300       .  A
O593       Zr628   2.443       .  S
O593        C594   1.288       .  A
C594       C1098   1.510       .  S
O595       Zr604   2.538       .  S
O595        C597   1.305       .  A
O596       Zr627   2.349       .  S
O596        C597   1.273       .  A
C597       C1171   1.502       .  S
O598       Zr601   2.481       .  S
O598        C600   1.292       .  A
O599       Zr628   2.376       .  S
O599        C600   1.272       .  A
C600       C1111   1.498       .  S
Zr601       O602   2.435       .  S
Zr601       O603   2.435       .  S
Zr601       O607   2.282       .  S
Zr601       O608   2.361       .  S
Zr601       O631   2.369       .  S
Zr601       O633   2.385       .  S
O602        H645   0.990       .  S
O603        H644   0.990       .  S
O603        H648   0.990       .  S
Zr604       O605   2.437       .  S
Zr604       O606   2.434       .  S
Zr604       O607   2.282       .  S
Zr604       O608   2.385       .  S
Zr604       O632   2.389       .  S
Zr604       O634   2.409       .  S
O605        H646   0.990       .  S
O605        H649   0.991       .  S
O606        H639   0.990       .  S
O607       Zr627   2.246       .  S
O608       Zr628   2.386       .  S
O608        H635   0.958       .  S
O609       Zr621   2.511       .  S
O609        C611   1.300       .  A
O610       Zr628   2.383       .  S
O610        C611   1.280       .  A
C611       C1121   1.497       .  S
O612       Zr624   2.470       .  S
O612        C614   1.287       .  A
O613       Zr627   2.391       .  S
O613        C614   1.269       .  A
C614       C1138   1.507       .  S
O615       Zr624   2.466       .  S
O615        C617   1.288       .  A
O616       Zr628   2.407       .  S
O616        C617   1.281       .  A
C617       C1131   1.510       .  S
O618       Zr621   2.488       .  S
O618        C620   1.293       .  A
O619       Zr627   2.375       .  S
O619        C620   1.277       .  A
C620       C1148   1.492       .  S
Zr621       O622   2.435       .  S
Zr621       O623   2.434       .  S
Zr621       O630   2.288       .  S
Zr621       O629   2.354       .  S
Zr621       O633   2.391       .  S
Zr621       O631   2.390       .  S
O622        H642   0.990       .  S
O622        H647   0.990       .  S
O623        H643   0.990       .  S
Zr624       O625   2.439       .  S
Zr624       O626   2.438       .  S
Zr624       O630   2.285       .  S
Zr624       O629   2.373       .  S
Zr624       O634   2.400       .  S
Zr624       O632   2.385       .  S
O625        H641   0.990       .  S
O626        H640   0.990       .  S
O626        H650   0.990       .  S
Zr627       O630   2.245       .  S
Zr627       O632   2.375       .  S
Zr627       O633   2.379       .  S
Zr628       O629   2.385       .  S
Zr628       O631   2.392       .  S
Zr628       O634   2.385       .  S
O629        H637   0.962       .  S
O632        H636   0.965       .  S
O633        H638   0.963       .  S
O651       Zr663   2.573       .  S
O651        C653   1.314       .  A
O652       Zr689   2.348       .  S
O652        C653   1.271   1_655  A
C653       C1081   1.520       .  S
O654       Zr666   2.467       .  S
O654        C656   1.289       .  A
O655       Zr690   2.354   1_655  S
O655        C656   1.270       .  A
C656       C1038   1.479       .  S
O657       Zr666   2.428       .  S
O657        C659   1.279       .  A
O658       Zr689   2.490       .  S
O658        C659   1.296       .  A
C659       C1091   1.498       .  S
O660       Zr663   2.554       .  S
O660        C662   1.308       .  A
O661       Zr690   2.371       .  S
O661        C662   1.277       .  A
C662       C1048   1.516       .  S
Zr663       O664   2.434       .  S
Zr663       O665   2.435       .  S
Zr663       O669   2.282   1_455  S
Zr663       O670   2.379   1_455  S
Zr663       O693   2.398       .  S
Zr663       O695   2.369       .  S
O664        H707   0.988       .  S
O665        H706   0.990       .  S
O665        H710   0.990       .  S
Zr666       O667   2.444       .  S
Zr666       O668   2.440       .  S
Zr666       O669   2.286       .  S
Zr666       O670   2.354       .  S
Zr666       O694   2.392       .  S
Zr666       O696   2.372       .  S
O667        H708   0.988       .  S
O667        H711   0.991       .  S
O668        H701   0.991       .  S
O669       Zr689   2.238       .  S
O670       Zr690   2.391   1_655  S
O670        H697   0.958       .  S
O671       Zr683   2.454       .  S
O671        C673   1.285       .  A
O672       Zr690   2.429       .  S
O672        C673   1.280       .  A
C673       C1018   1.510       .  S
O674       Zr686   2.517       .  S
O674        C676   1.298       .  A
O675       Zr689   2.409       .  S
O675        C676   1.276       .  A
C676       C1058   1.528       .  S
O677       Zr686   2.533       .  S
O677        C679   1.304       .  A
O678       Zr690   2.376   1_655  S
O678        C679   1.277       .  A
C679       C1028   1.499       .  S
O680       Zr683   2.395       .  S
O680        C682   1.277       .  A
O681       Zr689   2.409   1_455  S
O681        C682   1.280       .  A
C682       C1071   1.455       .  S
Zr683       O684   2.435       .  S
Zr683       O685   2.433       .  S
Zr683       O691   2.378   1_455  S
Zr683       O692   2.381   1_455  S
Zr683       O695   2.397       .  S
Zr683       O693   2.366       .  S
O684        H704   0.990       .  S
O684        H709   0.990       .  S
O685        H705   0.990       .  S
Zr686       O687   2.435       .  S
Zr686       O688   2.436       .  S
Zr686       O692   2.372       .  S
Zr686       O691   2.358       .  S
Zr686       O696   2.401       .  S
Zr686       O694   2.402       .  S
O687        H703   0.990       .  S
O688        H702   0.990       .  S
O688        H712   0.991       .  S
Zr689       O692   2.376       .  S
Zr689       O694   2.378       .  S
Zr689       O695   2.396   1_655  S
Zr690       O691   2.364   1_455  S
Zr690       O693   2.375       .  S
Zr690       O696   2.385   1_455  S
O691        H699   0.962       .  S
O694        H698   0.965       .  S
O695        H700   0.964       .  S
O713       Zr725   2.465       .  S
O713        C715   1.289       .  A
O714       Zr751   2.421   1_565  S
O714        C715   1.285       .  A
C715        C998   1.482       .  S
O716       Zr728   2.527       .  S
O716        C718   1.302       .  A
O717       Zr752   2.393       .  S
O717        C718   1.276       .  A
C718        C958   1.527       .  S
O719       Zr728   2.485       .  S
O719        C721   1.294       .  A
O720       Zr751   2.414       .  S
O720        C721   1.281       .  A
C721       C1008   1.520       .  S
O722       Zr725   2.483       .  S
O722        C724   1.293       .  A
O723       Zr752   2.366   1_565  S
O723        C724   1.276       .  A
C724        C968   1.473       .  S
Zr725       O726   2.434       .  S
Zr725       O727   2.433       .  S
Zr725       O731   2.372       .  S
Zr725       O732   2.358       .  S
Zr725       O755   2.392       .  S
Zr725       O757   2.396       .  S
O726        H769   0.991       .  S
O727        H768   0.990       .  S
O727        H772   0.990       .  S
Zr728       O729   2.431       .  S
Zr728       O730   2.435       .  S
Zr728       O758   2.287       .  S
Zr728       O732   2.358   1_545  S
Zr728       O731   2.368   1_545  S
Zr728       O756   2.403       .  S
O729        H770   0.990       .  S
O729        H773   0.989       .  S
O730        H763   0.990       .  S
O731       Zr751   2.368   1_565  S
O732       Zr752   2.375   1_565  S
O732        H759   0.960       .  S
O733       Zr745   2.528       .  S
O733        C735   1.301       .  A
O734       Zr752   2.397   1_565  S
O734        C735   1.277       .  A
C735        C941   1.526       .  S
O736       Zr748   2.458       .  S
O736        C738   1.288       .  A
O737       Zr751   2.376       .  S
O737        C738   1.277       .  A
C738        C981   1.492       .  S
O739       Zr748   2.476       .  S
O739        C741   1.288       .  A
O740       Zr752   2.372       .  S
O740        C741   1.273       .  A
C741        C948   1.488       .  S
O742       Zr745   2.475       .  S
O742        C744   1.292       .  A
O743       Zr751   2.434   1_565  S
O743        C744   1.287       .  A
C744        C988   1.525       .  S
Zr745       O746   2.425       .  S
Zr745       O747   2.434       .  S
Zr745       O754   2.292   1_565  S
Zr745       O753   2.361   1_565  S
Zr745       O757   2.397       .  S
Zr745       O755   2.373       .  S
O746        H766   0.989       .  S
O746        H771   0.990       .  S
O747        H767   0.990       .  S
Zr748       O749   2.438       .  S
Zr748       O750   2.436       .  S
Zr748       O754   2.281       .  S
Zr748       O758   2.278       .  S
Zr748       O753   2.379       .  S
Zr748       O756   2.384       .  S
O749        H765   0.990       .  S
O750        H764   0.990       .  S
O750        H774   0.990       .  S
Zr751       O754   2.260       .  S
Zr751       O756   2.396       .  S
Zr751       O757   2.391   1_545  S
Zr752       O758   2.266       .  S
Zr752       O753   2.382       .  S
Zr752       O755   2.377   1_545  S
O753        H761   0.957       .  S
O756        H760   0.968       .  S
O757        H762   0.966       .  S
C775        C859   1.500       .  S
C775        C776   1.432       .  A
C775        C780   1.434       .  A
C776        C777   1.420       .  A
C776        H781   1.083   1_455  S
C777       C1078   1.496       .  S
C777        C778   1.380       .  A
C778        C779   1.381       .  A
C778        H782   1.088       .  S
C779       C1168   1.497       .  S
C779        C780   1.421       .  A
C780        H783   1.081       .  S
C784        C858   1.459       .  S
C784        C785   1.409       .  A
C784        C789   1.398       .  A
C785        C786   1.406       .  A
C785        H790   1.082       .  S
C786       C1141   1.469       .  S
C786        C787   1.392       .  A
C787        C788   1.386       .  A
C787        H791   1.086       .  S
C788       C1068   1.456       .  S
C788        C789   1.389       .  A
C789        H792   1.074       .  S
C793        C895   1.508       .  S
C793        C794   1.412       .  A
C793        C798   1.432       .  A
C794        C795   1.418       .  A
C794        H799   1.077       .  S
C795       C1021   1.477       .  S
C795        C796   1.393       .  A
C796        C797   1.383       .  A
C796        H800   1.087       .  S
C797        C991   1.492       .  S
C797        C798   1.406       .  A
C798        H801   1.082       .  S
C802        C893   1.495       .  S
C802        C803   1.424       .  A
C802        C807   1.408       .  A
C803        C804   1.422       .  A
C803        H808   1.073       .  S
C804       C1061   1.499       .  S
C804        C805   1.388       .  A
C805        C806   1.387       .  A
C805        H809   1.087       .  S
C806        C951   1.470       .  S
C806        C807   1.402       .  A
C807        H810   1.078       .  S
C811        C861   1.525       .  S
C811        C812   1.424       .  A
C811        C816   1.443       .  A
C812        C813   1.391       .  A
C812        H817   1.084       .  S
C813        C961   1.481       .  S
C813        C814   1.376       .  A
C814        C815   1.398       .  A
C814        H818   1.085       .  S
C815       C1088   1.533       .  S
C815        C816   1.447       .  A
C816        H819   1.078       .  S
C820        C860   1.503       .  S
C820        C821   1.402       .  A
C820        C825   1.435       .  A
C821        C822   1.404       .  A
C821        H826   1.073       .  S
C822       C1161   1.463       .  S
C822        C823   1.387       .  A
C823        C824   1.383       .  A
C823        H827   1.087       .  S
C824       C1011   1.494       .  S
C824        C825   1.413       .  A
C825        H828   1.083       .  S
C829        C891   1.525       .  S
C829        C830   1.422       .  A
C829        C834   1.437       .  A
C830        C831   1.423       .  A
C830        H835   1.078       .  S
C831       C1051   1.501       .  S
C831        C832   1.391       .  A
C832        C833   1.385       .  A
C832        H836   1.076       .  S
C833       C1001   1.525       .  S
C833        C834   1.431       .  A
C834        H837   1.078       .  S
C838        C894   1.493       .  S
C838        C839   1.430       .  A
C838        C843   1.407       .  A
C839        C840   1.427       .  A
C839        H844   1.077       .  S
C840       C1151   1.506       .  S
C840        C841   1.393       .  A
C841        C842   1.391       .  A
C841        H845   1.087       .  S
C842        C978   1.474       .  S
C842        C843   1.396       .  A
C843        H846   1.083       .  S
O847       Zr883   2.442       .  S
O847        C858   1.296       .  A
O848       Zr882   2.617   1_445  S
O848        C859   1.330       .  A
O849       Zr855   2.551       .  S
O849        C860   1.313       .  A
O850       Zr855   2.564   1_655  S
O850        C861   1.313       .  A
O851        C861   1.286       .  A
O852        C860   1.275       .  A
O853       Zr855   2.319       .  S
O853        C859   1.270       .  A
O854        C858   1.292       .  A
Zr855       O856   2.364   1_455  S
Zr855       O863   2.358       .  S
O856       Zr882   2.353   1_545  S
O857       Zr883   2.373       .  S
O857       Zr884   2.315   1_545  S
H862        O863   0.965       .  S
O863       Zr882   2.350   1_445  S
H864        O865   0.964       .  S
O865       Zr883   2.387   1_655  S
O865       Zr885   2.340   1_545  S
O866       Zr882   2.443       .  S
O866        C889   1.295       .  A
O867       Zr883   2.650   1_665  S
O867        C890   1.337       .  A
O868        C891   1.290       .  A
O869        C892   1.296       .  A
O870       Zr885   2.432   1_545  S
O870        C893   1.290       .  A
O871       Zr884   2.412   1_545  S
O871        C894   1.286       .  A
O872       Zr886   2.567   1_455  S
O872        C895   1.314       .  A
O873       Zr886   2.567       .  S
O873        C896   1.314       .  A
O874       Zr884   2.364       .  S
O874        C895   1.276       .  A
O875       Zr885   2.372       .  S
O875        C896   1.279       .  A
O876       Zr882   2.559   1_455  S
O876        C891   1.316       .  A
O877       Zr883   2.521       .  S
O877        C894   1.307       .  A
O878       Zr883   2.521   1_655  S
O878        C893   1.308       .  A
O879       Zr882   2.535       .  S
O879        C892   1.311       .  A
O880        C889   1.288       .  A
O881       Zr886   2.298       .  S
O881        C890   1.266       .  A
Zr882       O888   2.375   1_655  S
Zr882       O900   2.373       .  S
Zr883       O887   2.336   1_445  S
Zr883       O898   2.342   1_545  S
Zr884       O898   2.349       .  S
Zr885       O887   2.349       .  S
Zr886       O887   2.347       .  S
Zr886       O898   2.345   1_655  S
C889        C928   1.442       .  S
C890        C919   1.512       .  S
C892        C910   1.516       .  S
C896        C901   1.517       .  S
H897        O898   0.965       .  S
H899        O900   0.962       .  S
C901        C902   1.432       .  A
C901        C906   1.416       .  A
C902        C903   1.405       .  A
C902        H907   1.082       .  S
C903        C938   1.487       .  S
C903        C904   1.379       .  A
C904        C905   1.388       .  A
C904        H908   1.088       .  S
C905       C1128   1.481       .  S
C905        C906   1.423       .  A
C906        H909   1.072       .  S
C910        C911   1.406       .  A
C910        C915   1.453       .  A
C911        C912   1.400       .  A
C911        H916   1.082       .  S
C912        C971   1.475       .  S
C912        C913   1.385       .  A
C913        C914   1.391       .  A
C913        H917   1.086       .  S
C914       C1101   1.538       .  S
C914        C915   1.444       .  A
C915        H918   1.081       .  S
C919        C920   1.432       .  A
C919        C924   1.443       .  A
C920        C921   1.424       .  A
C920        H925   1.083       .  S
C921       C1118   1.484       .  S
C921        C922   1.378       .  A
C922        C923   1.372       .  A
C922        H926   1.089       .  S
C923       C1031   1.503       .  S
C923        C924   1.432       .  A
C924        H927   1.080       .  S
C928        C929   1.407       .  A
C928        C933   1.393       .  A
C929        C930   1.407       .  A
C929        H934   1.082       .  S
C930       C1108   1.474       .  S
C930        C931   1.385       .  A
C931        C932   1.386       .  A
C931        H935   1.087       .  S
C932       C1041   1.444       .  S
C932        C933   1.383       .  A
C933        H936   1.083       .  S
C937        C938   1.402       .  A
C937        C942   1.410       .  A
C937       Br944   1.938       .  S
C938        C939   1.405       .  A
C939        C940   1.417       .  A
C939       Br946   1.930       .  S
C940        C941   1.426       .  A
C940       Br945   1.920       .  S
C941        C942   1.435       .  A
C942       Br943   1.929       .  S
C947        C948   1.415       .  A
C947        C952   1.398       .  A
C947       Br954   1.938       .  S
C948        C949   1.424       .  A
C949        C950   1.412       .  A
C949       Br956   1.929       .  S
C950        C951   1.404       .  A
C950       Br955   1.929       .  S
C951        C952   1.406       .  A
C952       Br953   1.930       .  S
C957        C958   1.444       .  A
C957        C962   1.410       .  A
C957       Br964   1.927       .  S
C958        C959   1.428       .  A
C959        C960   1.414       .  A
C959       Br966   1.925       .  S
C960        C961   1.403       .  A
C960       Br965   1.934       .  S
C961        C962   1.389       .  A
C962       Br963   1.930       .  S
C967        C968   1.412       .  A
C967        C972   1.410       .  A
C967       Br974   1.930       .  S
C968        C969   1.407       .  A
C969        C970   1.402       .  A
C969       Br976   1.927       .  S
C970        C971   1.405       .  A
C970       Br975   1.925       .  S
C971        C972   1.415       .  A
C972       Br973   1.935       .  S
C977        C978   1.404       .  A
C977        C982   1.401       .  A
C977       Br984   1.934       .  S
C978        C979   1.404       .  A
C979        C980   1.409       .  A
C979       Br986   1.931       .  S
C980        C981   1.423       .  A
C980       Br985   1.931       .  S
C981        C982   1.421       .  A
C982       Br983   1.940       .  S
C987        C988   1.431       .  A
C987        C992   1.416       .  A
C987       Br994   1.938       .  S
C988        C989   1.431       .  A
C989        C990   1.415       .  A
C989       Br996   1.925       .  S
C990        C991   1.402       .  A
C990       Br995   1.934       .  S
C991        C992   1.406       .  A
C992       Br993   1.927       .  S
C997        C998   1.393       .  A
C997       C1002   1.398       .  A
C997      Br1004   1.935       .  S
C998        C999   1.416       .  A
C999       C1000   1.424       .  A
C999      Br1006   1.922       .  S
C1000      C1001   1.415       .  A
C1000     Br1005   1.924       .  S
C1001      C1002   1.434       .  A
C1002     Br1003   1.928       .  S
C1007      C1008   1.433       .  A
C1007      C1012   1.413       .  A
C1007     Br1014   1.936       .  S
C1008      C1009   1.427       .  A
C1009      C1010   1.415       .  A
C1009     Br1016   1.934       .  S
C1010      C1011   1.409       .  A
C1010     Br1015   1.931       .  S
C1011      C1012   1.406       .  A
C1012     Br1013   1.935       .  S
C1017      C1018   1.428       .  A
C1017      C1022   1.403       .  A
C1017     Br1024   1.934       .  S
C1018      C1019   1.427       .  A
C1019      C1020   1.414       .  A
C1019     Br1026   1.931       .  S
C1020      C1021   1.405       .  A
C1020     Br1025   1.931       .  S
C1021      C1022   1.404       .  A
C1022     Br1023   1.931       .  S
C1027      C1028   1.412       .  A
C1027      C1032   1.422       .  A
C1027     Br1034   1.924       .  S
C1028      C1029   1.410       .  A
C1029      C1030   1.411       .  A
C1029     Br1036   1.930       .  S
C1030      C1031   1.415       .  A
C1030     Br1035   1.925       .  S
C1031      C1032   1.421       .  A
C1032     Br1033   1.922       .  S
C1037      C1038   1.425       .  A
C1037      C1042   1.394       .  A
C1037     Br1044   1.933       .  S
C1038      C1039   1.423       .  A
C1039      C1040   1.399       .  A
C1039     Br1046   1.932       .  S
C1040      C1041   1.395       .  A
C1040     Br1045   1.932       .  S
C1041      C1042   1.402       .  A
C1042     Br1043   1.942       .  S
C1047      C1048   1.424       .  A
C1047      C1052   1.412       .  A
C1047     Br1054   1.936       .  S
C1048      C1049   1.419       .  A
C1049      C1050   1.424       .  A
C1049     Br1056   1.923       .  S
C1050      C1051   1.418       .  A
C1050     Br1055   1.930       .  S
C1051      C1052   1.413       .  A
C1052     Br1053   1.937       .  S
C1057      C1058   1.423       .  A
C1057      C1062   1.423       .  A
C1057     Br1064   1.930       .  S
C1058      C1059   1.434       .  A
C1059      C1060   1.411       .  A
C1059     Br1066   1.923       .  S
C1060      C1061   1.401       .  A
C1060     Br1065   1.936       .  S
C1061      C1062   1.415       .  A
C1062     Br1063   1.929       .  S
C1067      C1068   1.406       .  A
C1067      C1072   1.396       .  A
C1067     Br1074   1.925       .  S
C1068      C1069   1.401       .  A
C1069      C1070   1.399       .  A
C1069     Br1076   1.931       .  S
C1070      C1071   1.413       .  A
C1070     Br1075   1.931       .  S
C1071      C1072   1.407       .  A
C1072     Br1073   1.935       .  S
C1077      C1078   1.419       .  A
C1077      C1082   1.417       .  A
C1077     Br1084   1.926       .  S
C1078      C1079   1.393   1_455  A
C1079      C1080   1.408       .  A
C1079     Br1086   1.928       .  S
C1080      C1081   1.439   1_655  A
C1080     Br1085   1.922       .  S
C1081      C1082   1.413       .  A
C1082     Br1083   1.928       .  S
C1087      C1088   1.406       .  A
C1087      C1092   1.424       .  A
C1087     Br1094   1.916       .  S
C1088      C1089   1.426       .  A
C1089      C1090   1.407       .  A
C1089     Br1096   1.913       .  S
C1090      C1091   1.399       .  A
C1090     Br1095   1.926       .  S
C1091      C1092   1.418       .  A
C1092     Br1093   1.911       .  S
C1097      C1098   1.420       .  A
C1097      C1102   1.431       .  A
C1097     Br1104   1.919       .  S
C1098      C1099   1.402       .  A
C1099      C1100   1.415       .  A
C1099     Br1106   1.925       .  S
C1100      C1101   1.426       .  A
C1100     Br1105   1.916       .  S
C1101      C1102   1.408       .  A
C1102     Br1103   1.912       .  S
C1107      C1108   1.409       .  A
C1107      C1112   1.402       .  A
C1107     Br1114   1.936       .  S
C1108      C1109   1.404       .  A
C1109      C1110   1.402       .  A
C1109     Br1116   1.937       .  S
C1110      C1111   1.434       .  A
C1110     Br1115   1.939       .  S
C1111      C1112   1.419       .  A
C1112     Br1113   1.932       .  S
C1117      C1118   1.425       .  A
C1117      C1122   1.417       .  A
C1117     Br1124   1.933       .  S
C1118      C1119   1.408       .  A
C1119      C1120   1.401       .  A
C1119     Br1126   1.934       .  S
C1120      C1121   1.412       .  A
C1120     Br1125   1.926       .  S
C1121      C1122   1.413       .  A
C1122     Br1123   1.924       .  S
C1127      C1128   1.408       .  A
C1127      C1132   1.408       .  A
C1127     Br1134   1.928       .  S
C1128      C1129   1.403       .  A
C1129      C1130   1.414       .  A
C1129     Br1136   1.934       .  S
C1130      C1131   1.433       .  A
C1130     Br1135   1.937       .  S
C1131      C1132   1.425       .  A
C1132     Br1133   1.935       .  S
C1137      C1138   1.426       .  A
C1137      C1142   1.411       .  A
C1137     Br1144   1.932       .  S
C1138      C1139   1.434       .  A
C1139      C1140   1.402       .  A
C1139     Br1146   1.942       .  S
C1140      C1141   1.403       .  A
C1140     Br1145   1.941       .  S
C1141      C1142   1.402       .  A
C1142     Br1143   1.930       .  S
C1147      C1148   1.417       .  A
C1147      C1152   1.430       .  A
C1147     Br1154   1.923       .  S
C1148      C1149   1.403       .  A
C1149      C1150   1.394       .  A
C1149     Br1156   1.934       .  S
C1150      C1151   1.411       .  A
C1150     Br1155   1.914       .  S
C1151      C1152   1.418       .  A
C1152     Br1153   1.920       .  S
C1157      C1158   1.426       .  A
C1157      C1162   1.403       .  A
C1157     Br1164   1.936       .  S
C1158      C1159   1.423       .  A
C1159      C1160   1.405       .  A
C1159     Br1166   1.934       .  S
C1160      C1161   1.407       .  A
C1160     Br1165   1.935       .  S
C1161      C1162   1.398       .  A
C1162     Br1163   1.933       .  S
C1167      C1168   1.422       .  A
C1167      C1172   1.423       .  A
C1167     Br1174   1.919       .  S
C1168      C1169   1.408       .  A
C1169      C1170   1.405       .  A
C1169     Br1176   1.930       .  S
C1170      C1171   1.415       .  A
C1170     Br1175   1.931       .  S
C1171      C1172   1.410       .  A
C1172     Br1173   1.923       .  S
