geometry optimzed in LAMMPS
_audit_creation_date              2020-12-01 
_audit_creation_method            'lammps2cif' 
_symmetry_space_group_name_H-M    'P1' 
_symmetry_Int_Tables_number       1 
_symmetry_cell_setting            triclinic 
loop_ 
_symmetry_equiv_pos_as_xyz 
  x,y,z 
_cell_length_a                    40.23309005 
_cell_length_b                    40.261599303073154 
_cell_length_c                    75.83558956638335 
_cell_angle_alpha                 90.29137314293764 
_cell_angle_beta                  90.54781339870985 
_cell_angle_gamma                 120.09796597762835 
loop_ 
_atom_site_label 
_atom_site_type_symbol 
_atom_site_fract_x 
_atom_site_fract_y 
_atom_site_fract_z 
_atom_site_charge 
N1          N  0.42443408  0.44619110  0.90301354    -0.25500
N2          N  0.43387538  0.47170706  0.89035353    -0.33400
C3          C  0.40770157  0.45652534  0.87723446     0.02800
C4          C  0.38058619  0.41939120  0.88155446     0.08800
C5          C  0.39204947  0.41358905  0.89805622    -0.04300
H6          H  0.40960273  0.47067629  0.86490271     0.09500
H7          H  0.37856065  0.38754514  0.90565098     0.10700
Cu8        Cu  0.48500018  0.52390789  0.88986491     0.44200
Cu9        Cu  0.45762376  0.45925933  0.92610929     0.42000
Cu10       Cu  0.04394713  0.05464290  0.92685618     0.43900
N11         N  0.03147945  0.07392385  0.89039467    -0.32900
N12         N  0.05765601  0.08457216  0.90309245    -0.27200
C13         C  0.09087673  0.11467353  0.89742126    -0.03300
C14         C  0.08478138  0.12329761  0.88037138     0.08900
C15         C  0.04684797  0.09690518  0.87649888     0.02700
H16         H  0.11758418  0.12844142  0.90493056     0.10400
H17         H  0.03205885  0.09316628  0.86398323     0.09500
N18         N  0.01797634  0.02114834  0.94907232    -0.34400
N19         N  0.49175550  0.48636894  0.94844209    -0.26600
C20         C  0.48250666  0.47459456  0.96521593    -0.01800
C21         C  0.00320318  0.00411902  0.97699894     0.06800
C22         C  0.02799816  0.03293210  0.96592668     0.04900
H23         H  0.45677624  0.44857211  0.96894960     0.10000
H24         H  0.05114138  0.06105499  0.96986233     0.08800
N25         N  0.08771680  0.05553537  0.76956075    -0.25500
N26         N  0.07378800  0.03142560  0.78283696    -0.33400
C27         C  0.09487972  0.04828471  0.79743414     0.02800
C28         C  0.12320652  0.08518832  0.79341754     0.08800
C29         C  0.11784894  0.08899768  0.77554585    -0.04300
H30         H  0.08868709  0.03537308  0.81032499     0.09500
H31         H  0.13408070  0.11420275  0.76760648     0.10700
Cu32       Cu  0.51198571  0.48561733  0.78101770     0.44200
Cu33       Cu  0.06237494  0.03915897  0.74440099     0.42000
Cu34       Cu  0.44798165  0.46133056  0.74434399     0.43900
N35         N  0.45514061  0.44183696  0.78175533    -0.32900
N36         N  0.43089446  0.43233953  0.76827610    -0.27200
C37         C  0.39556218  0.40545778  0.77357046    -0.03300
C38         C  0.39796611  0.39768648  0.79119119     0.08900
C39         C  0.43599322  0.42177848  0.79594763     0.02700
H40         H  0.36963382  0.39457062  0.76560531     0.10400
H41         H  0.44834596  0.42620240  0.80908668     0.09500
N42         N  0.47442841  0.49403518  0.72204603    -0.34400
N43         N  0.03214421  0.01383981  0.72086034    -0.26600
C44         C  0.04516157  0.02585949  0.70449881    -0.01800
C45         C  0.48675320  0.51167519  0.69409200     0.06800
C46         C  0.45933184  0.48651398  0.70559115     0.04900
H47         H  0.07323287  0.05004312  0.70162017     0.10000
H48         H  0.43094732  0.46320151  0.70212641     0.08800
N49         N  0.06002816  0.48753142  0.43061388    -0.25500
N50         N  0.04048202  0.47826539  0.44540633    -0.33400
C51         C  0.06328904  0.47944491  0.45872552     0.02800
C52         C  0.09902097  0.48946666  0.45217025     0.08800
C53         C  0.09615090  0.49498534  0.43424815    -0.04300
H54         H  0.05551559  0.47661709  0.47249021     0.09500
H55         H  0.11936324  0.50663177  0.42490862     0.10700
Cu56       Cu  0.49052484  0.47401624  0.45000535     0.44200
Cu57       Cu  0.03549957  0.49397614  0.40731884     0.42000
Cu58       Cu  0.45015554  0.49360965  0.41233655     0.43900
N59         N  0.43718591  0.47044300  0.45016201    -0.32900
N60         N  0.42279241  0.47996288  0.43666009    -0.27200
C61         C  0.39045618  0.47944912  0.44182172    -0.01500
C62         C  0.38422149  0.46861233  0.45938536     0.08900
C63         C  0.41427520  0.46296341  0.46410204     0.02700
H64         H  0.37335612  0.48716571  0.43354730     0.10400
H65         H  0.42033326  0.45615553  0.47710977     0.09500
N66         N  0.48082447  0.49950861  0.38935294    -0.34400
N67         N  0.00272212  0.49732337  0.38646734    -0.26600
C68         C  0.01052230  0.49747874  0.36922818    -0.01800
C69         C  0.49492385  0.50106294  0.36105171     0.06800
C70         C  0.46865133  0.50040101  0.37285314     0.04900
H71         H  0.03499747  0.49616379  0.36426820     0.10000
H72         H  0.44190159  0.49946976  0.36964880     0.08800
N73         N  0.08773802  0.52993599  0.56758085    -0.25500
N74         N  0.07521726  0.54437050  0.55532954    -0.33400
C75         C  0.09511657  0.54948709  0.54050731     0.02800
C76         C  0.12140043  0.53748250  0.54335495     0.08800
C77         C  0.11598597  0.52514856  0.56072841    -0.04300
H78         H  0.08960147  0.55958459  0.52822286     0.09500
H79         H  0.13080367  0.51290868  0.56774125     0.10700
Cu80       Cu  0.52635166  0.55734102  0.55719733     0.44200
Cu81       Cu  0.06314893  0.51728660  0.59258736     0.42000
Cu82       Cu  0.46238880  0.52416493  0.59404447     0.43900
N83         N  0.47206681  0.55171373  0.55670324    -0.32900
N84         N  0.44687828  0.53712543  0.56955408    -0.27200
C85         C  0.41285292  0.53245432  0.56364828    -0.03300
C86         C  0.41738195  0.54521295  0.54632875     0.08900
C87         C  0.45526550  0.55731839  0.54255797     0.02700
H88         H  0.38674122  0.51990577  0.57119276     0.10400
H89         H  0.46903930  0.56730535  0.52997610     0.09500
N90         N  0.49113186  0.51998130  0.61653406    -0.34400
N91         N  0.03395398  0.51127231  0.61614390    -0.26600
C92         C  0.04709287  0.51017021  0.63242523    -0.01800
C93         C  0.50928604  0.52010944  0.64437031     0.06800
C94         C  0.48085234  0.51919160  0.63350331     0.04900
H95         H  0.07437155  0.51187909  0.63516386     0.10000
H96         H  0.45535275  0.51959093  0.63761607     0.08800
N97         N  0.96565276  0.41113056  0.10200973    -0.25500
N98         N  0.95568211  0.42479739  0.11556247    -0.33400
C99         C  0.94848309  0.40161367  0.12938294     0.02800
C100        C  0.95466448  0.37204607  0.12452268     0.08800
C101        C  0.96570846  0.37894629  0.10700572    -0.04300
H102        H  0.94113028  0.40697455  0.14238652     0.09500
H103        H  0.97372399  0.36229765  0.09863708     0.10700
Cu104      Cu  0.94852104  0.97127930  0.11439625     0.44200
Cu105      Cu  0.97909263  0.43976509  0.07804231     0.42000
Cu106      Cu  0.98079548  0.02898960  0.07581160     0.43900
N107        N  0.95815767  0.02688601  0.11365922    -0.32900
N108        N  0.97087816  0.04919564  0.09970950    -0.27200
C109        C  0.97860793  0.08485315  0.10446767    -0.03300
C110        C  0.96990019  0.08459509  0.12219221     0.08900
C111        C  0.95763706  0.04750098  0.12752479     0.02700
H112        H  0.99240641  0.10973171  0.09609059     0.10400
H113        H  0.95165016  0.03702797  0.14088717     0.09500
N114        N  0.98394344  0.99802175  0.05403571    -0.34400
N115        N  0.98996302  0.47387623  0.05583767    -0.26600
C116        C  0.98953601  0.46208195  0.03919575    -0.01800
C117        C  0.98539839  0.97906509  0.02654583     0.06800
C118        C  0.98797755  0.00874014  0.03697952     0.04900
H119        H  0.98314914  0.43339923  0.03550582     0.10000
H120        H  0.99109337  0.03561720  0.03246408     0.08800
N121        N  0.52334235  0.06754957  0.23532961    -0.25500
N122        N  0.53997581  0.05787000  0.22297743    -0.33400
C123        C  0.54821122  0.08138185  0.20922414     0.02800
C124        C  0.53596072  0.10716319  0.21272407     0.08800
C125        C  0.52011408  0.09759885  0.22947526    -0.04300
H126        H  0.56072774  0.07873906  0.19708237     0.09500
H127        H  0.50686475  0.11105422  0.23672798     0.10700
Cu128      Cu  0.53768627  0.50539069  0.22464090     0.44200
Cu129      Cu  0.50742834  0.03746824  0.25922175     0.42000
Cu130      Cu  0.51459656  0.44529799  0.26103288     0.43900
N131        N  0.53778242  0.45411567  0.22352448    -0.32900
N132        N  0.52688014  0.42961762  0.23665788    -0.27200
C133        C  0.52514284  0.39688011  0.23086755    -0.03300
C134        C  0.53601456  0.40170085  0.21326978     0.08900
C135        C  0.54392475  0.43832928  0.20922217     0.02700
H136        H  0.51603552  0.37147659  0.23870780     0.10400
H137        H  0.55151156  0.45176663  0.19644923     0.09500
N138        N  0.50756579  0.47197798  0.28336088    -0.34400
N139        N  0.50401459  0.00534865  0.28166201    -0.26600
C140        C  0.50097420  0.01445622  0.29849395    -0.01800
C141        C  0.50442708  0.48580187  0.31145486     0.06800
C142        C  0.50892611  0.46151602  0.30006545     0.04900
H143        H  0.49848662  0.03905542  0.30238867     0.10000
H144        H  0.51370482  0.43822031  0.30369172     0.08800
C145        C  0.50921794  0.31187928  0.18463294    -0.09100
C146        C  0.50094207  0.32447704  0.16885901    -0.03000
C147        C  0.98103147  0.30818008  0.15179788    -0.09100
C148        C  0.98018152  0.27253984  0.15194529     0.11900
C149        C  0.50388863  0.25640710  0.16831414    -0.00900
C150        C  0.50975631  0.27691066  0.18449659     0.11700
C151        C  0.51696060  0.26237075  0.19998380    -0.10900
C152        C  0.51792066  0.22820056  0.19977248    -0.10900
C153        C  0.51206110  0.20724716  0.18404122     0.11700
C154        C  0.50542457  0.22170053  0.16806220    -0.00900
C155        C  0.97171823  0.24993869  0.13657350    -0.11000
C156        C  0.97033196  0.21461397  0.13680878    -0.11000
C157        C  0.97668688  0.20003311  0.15250234     0.11900
C158        C  0.97506972  0.16396985  0.15280050    -0.09100
C159        C  0.50743391  0.15310062  0.16763026    -0.03000
C160        C  0.51312201  0.17250862  0.18378284    -0.09100
H161        H  0.52212732  0.27739518  0.21247019     0.09100
H162        H  0.52379004  0.21859771  0.21210797     0.09100
H163        H  0.96604374  0.25937560  0.12414133     0.09300
H164        H  0.96414318  0.19882837  0.12449955     0.09300
H165        H  0.50007079  0.35090442  0.16911578     0.05700
H166        H  0.50538808  0.12523416  0.16765363     0.05700
C167        C  0.18382930  0.17756739  0.82143180    -0.09100
C168        C  0.16299529  0.16504338  0.83708537    -0.03000
C169        C  0.17494471  0.18642150  0.85285773    -0.09100
C170        C  0.20988759  0.22208288  0.85314778     0.11900
C171        C  0.23136317  0.23605448  0.83738363    -0.00900
C172        C  0.21804311  0.21399793  0.82144343     0.11700
C173        C  0.23961628  0.22879997  0.80607112    -0.10900
C174        C  0.27326673  0.26452592  0.80615966    -0.10900
C175        C  0.28739774  0.28662643  0.82173366     0.11700
C176        C  0.26626551  0.27222073  0.83756518    -0.00900
C177        C  0.22349855  0.24457663  0.86863404    -0.11000
C178        C  0.25785537  0.27968024  0.86885666    -0.11000
C179        C  0.27984773  0.29394122  0.85356526     0.11900
C180        C  0.31481178  0.32956128  0.85373171    -0.09100
C181        C  0.33536013  0.34253364  0.83804888    -0.03000
C182        C  0.32191146  0.32279653  0.82194452    -0.09100
H183        H  0.23067254  0.21289956  0.79373740     0.09100
H184        H  0.28812042  0.27450755  0.79381968     0.09100
H185        H  0.20761304  0.23531395  0.88076593     0.09300
H186        H  0.26687436  0.29575825  0.88114665     0.09300
H187        H  0.13648577  0.13769033  0.83701332     0.05700
H188        H  0.36337401  0.36827310  0.83854532     0.05700
C189        C  0.18373348  0.51010712  0.51489080    -0.09100
C190        C  0.16349142  0.50158547  0.49879838    -0.03000
C191        C  0.17743730  0.49468493  0.48315417    -0.09100
C192        C  0.21254587  0.49427945  0.48378354     0.11900
C193        C  0.23350643  0.50227168  0.50001624    -0.00900
C194        C  0.21909759  0.51029078  0.51557820     0.11700
C195        C  0.24077751  0.51888543  0.53132231    -0.10900
C196        C  0.27561277  0.51924958  0.53195259    -0.10900
C197        C  0.29032309  0.51104267  0.51687340     0.11700
C198        C  0.26913788  0.50252972  0.50067531    -0.00900
C199        C  0.22752250  0.48655059  0.46863888    -0.11000
C200        C  0.26215304  0.48639504  0.46932105    -0.11000
C201        C  0.28358462  0.49451430  0.48511986     0.11900
C202        C  0.31878188  0.49433794  0.48590303    -0.09100
C203        C  0.33928064  0.50354266  0.50195689    -0.03000
C204        C  0.32614935  0.51217653  0.51740335    -0.09100
H205        H  0.23129642  0.52592310  0.54334461     0.09100
H206        H  0.29112706  0.52643946  0.54440995     0.09100
H207        H  0.21258903  0.48056984  0.45606446     0.09300
H208        H  0.27194308  0.47979583  0.45727045     0.09300
H209        H  0.13532200  0.49892181  0.49854394     0.05700
H210        H  0.36652374  0.50421952  0.50245182     0.05700
C211        C  0.51748653  0.15373930  0.20007964    -0.14700
C212        C  0.53750405  0.13506640  0.19956514    -0.29900
H213        H  0.50174837  0.15248741  0.21184339     0.14300
H214        H  0.03089869  0.13670169  0.18640405     0.14900
C215        C  0.53621168  0.37465385  0.20001449    -0.14700
C216        C  0.51592347  0.33599756  0.20092009    -0.29900
H217        H  0.04178777  0.39469470  0.18507234     0.14300
H218        H  0.50149444  0.32230912  0.21303224     0.14900
C219        C  0.96638247  0.13847671  0.13682307    -0.14700
C220        C  0.98386307  0.11759258  0.13453198    -0.29900
H221        H  0.47146503  0.13833240  0.12636949     0.14300
H222        H  0.00631242  0.12125121  0.14375455     0.14900
C223        C  0.95309295  0.34320435  0.13701914    -0.14700
C224        C  0.97341621  0.32496402  0.13567346    -0.29900
H225        H  0.45093952  0.33741432  0.15037531     0.14300
H226        H  0.98809940  0.32633385  0.12353742     0.14900
C227        C  0.38923463  0.54300130  0.53289652    -0.14700
C228        C  0.35064088  0.52097249  0.53379655    -0.29900
H229        H  0.40485425  0.06182196  0.52266438     0.14300
H230        H  0.33742869  0.50669271  0.54599784     0.14900
C231        C  0.14610407  0.53568244  0.52946444    -0.14700
C232        C  0.16574427  0.51673565  0.53077979    -0.29900
H233        H  0.14982387  0.04834294  0.52226299     0.14300
H234        H  0.16671169  0.50416663  0.54326379     0.14900
C235        C  0.49218274  0.50163217  0.34154717    -0.14700
C236        C  0.50750905  0.48608003  0.33097459    -0.29900
H237        H  0.47532698  0.01772266  0.33343881     0.14300
H238        H  0.01235757  0.47518132  0.33451708     0.14900
C239        C  0.33667826  0.48685164  0.47020903    -0.14700
C240        C  0.35584076  0.46748439  0.47200999    -0.29900
H241        H  0.34225215  0.01726660  0.45805693     0.14300
H242        H  0.35422397  0.45352369  0.48445730     0.14900
C243        C  0.13408503  0.50500438  0.46334732    -0.14700
C244        C  0.15270855  0.48563427  0.46685624    -0.29900
H245        H  0.14101592  0.03591617  0.48082003     0.14300
H246        H  0.14650575  0.46059636  0.45893558     0.14900
C247        C  0.51281966  0.52244153  0.66389946    -0.14700
C248        C  0.48272006  0.51150170  0.67460998    -0.29900
H249        H  0.46024778  0.97319455  0.66802672     0.14300
H250        H  0.96633084  0.48378767  0.66964640     0.14900
C251        C  0.34629242  0.34023636  0.80600246    -0.14700
C252        C  0.36636483  0.37864169  0.80382231    -0.29900
H253        H  0.35019838  0.32188890  0.79671719     0.14300
H254        H  0.36294852  0.39736481  0.81305059     0.14900
C255        C  0.16742283  0.15206231  0.80534649    -0.14700
C256        C  0.14954288  0.11343770  0.80678399    -0.29900
H257        H  0.16685215  0.16467444  0.79281588     0.14300
H258        H  0.15101476  0.10134712  0.81933878     0.14900
C259        C  0.00234992  0.00697204  0.99652842    -0.14700
C260        C  0.98569482  0.97608765  0.00699616    -0.29900
H261        H  0.53054217  0.03562836  0.00129487     0.14300
H262        H  0.97958279  0.46031716  0.00263290     0.14900
C263        C  0.35064022  0.39223197  0.86906049    -0.14700
C264        C  0.33273238  0.35360448  0.87000564    -0.29900
H265        H  0.34699216  0.40492121  0.85709948     0.14300
H266        H  0.33515867  0.33999322  0.88188593     0.14900
C267        C  0.11185931  0.15019886  0.86727224    -0.14700
C268        C  0.15052424  0.16910603  0.86878628    -0.29900
H269        H  0.09894917  0.15165393  0.85486215     0.14300
H270        H  0.16411725  0.16896100  0.88119257     0.14900
N271        N  0.42307494  0.94422189  0.90291355    -0.25500
N272        N  0.43052399  0.97036546  0.89074163    -0.33400
C273        C  0.40569657  0.95432466  0.87720523     0.02800
C274        C  0.38151039  0.91601541  0.88066930     0.08800
C275        C  0.39322868  0.91031386  0.89716006    -0.04300
H276        H  0.40667057  0.96904878  0.86516993     0.09500
H277        H  0.38167884  0.88360266  0.90420160     0.10700
Cu278      Cu  0.47756458  0.02534429  0.89100236     0.44200
Cu279      Cu  0.45579775  0.95834401  0.92633532     0.42000
Cu280      Cu  0.05046478  0.55695711  0.92718120     0.43900
N281        N  0.03439842  0.57644914  0.89147583    -0.32900
N282        N  0.06182880  0.58608766  0.90348034    -0.27200
C283        C  0.09473963  0.61598750  0.89751890    -0.03300
C284        C  0.08727599  0.62570328  0.88100269     0.08900
C285        C  0.04880719  0.60008955  0.87771068     0.02700
H286        H  0.12204654  0.62910135  0.90453919     0.10400
H287        H  0.03283946  0.59754627  0.86568840     0.09500
N288        N  0.02480891  0.52773432  0.95017168    -0.34400
N289        N  0.49121423  0.98669365  0.94831270    -0.26600
C290        C  0.48437495  0.97534460  0.96525292    -0.01800
C291        C  0.01209057  0.51515208  0.97850236     0.06800
C292        C  0.03793578  0.54070462  0.96662790     0.04900
H293        H  0.45979776  0.94890976  0.96956418     0.10000
H294        H  0.06402469  0.56732479  0.96971142     0.08800
N295        N  0.08005561  0.55657820  0.76989284    -0.25500
N296        N  0.06720261  0.53282215  0.78334451    -0.33400
C297        C  0.08917414  0.55000925  0.79764600     0.02800
C298        C  0.11709939  0.58668845  0.79325327     0.08800
C299        C  0.11052221  0.59017522  0.77550147    -0.04300
H300        H  0.08407748  0.53729420  0.81056474     0.09500
H301        H  0.12637542  0.61512499  0.76736066     0.10700
Cu302      Cu  0.50899046  0.99011256  0.78286523     0.44200
Cu303      Cu  0.05357186  0.53952409  0.74494857     0.42000
Cu304      Cu  0.45861189  0.95048927  0.74218251     0.43900
N305        N  0.45391978  0.94325355  0.78151448    -0.32900
N306        N  0.43438248  0.92752175  0.76675961    -0.27200
C307        C  0.39881232  0.89891186  0.77101953    -0.03300
C308        C  0.39637356  0.89706714  0.78932074     0.08900
C309        C  0.43162140  0.92581760  0.79537272     0.02700
H310        H  0.37589218  0.88235289  0.76159819     0.10400
H311        H  0.44004509  0.93448067  0.80899040     0.09500
N312        N  0.49309974  0.98108218  0.72072776    -0.34400
N313        N  0.02000156  0.51165399  0.72243226    -0.26600
C314        C  0.02998592  0.52100107  0.70544524    -0.01800
C315        C  0.51500931  0.99804243  0.69350271     0.06800
C316        C  0.48437054  0.97193381  0.70349554     0.04900
H317        H  0.05731559  0.54450757  0.70128773     0.10000
H318        H  0.45784788  0.94765984  0.69862362     0.08800
N319        N  0.06324427  0.99454211  0.43569603    -0.25500
N320        N  0.04904477  0.00327228  0.44941704    -0.33400
C321        C  0.07281623  0.01154223  0.46330821     0.02800
C322        C  0.10336737  0.00729183  0.45833784     0.08800
C323        C  0.09651297  0.99630067  0.44066915    -0.04300
H324        H  0.06812699  0.02000134  0.47620593     0.09500
H325        H  0.11488540  0.99144217  0.43198564     0.10700
Cu326      Cu  0.48125807  0.96916775  0.44592853     0.44200
Cu327      Cu  0.03583792  0.98509652  0.41117519     0.42000
Cu328      Cu  0.45091800  0.00440248  0.41017634     0.43900
N329        N  0.43333527  0.97523115  0.44695883    -0.32900
N330        N  0.42289122  0.99088231  0.43440115    -0.27200
C331        C  0.39344576  0.99489302  0.44032282    -0.01500
C332        C  0.38507524  0.98055218  0.45735083     0.08900
C333        C  0.41087352  0.96835309  0.46097478     0.02700
H334        H  0.37958912  0.00760503  0.43290711     0.10400
H335        H  0.41433900  0.95696102  0.47332434     0.09500
N336        N  0.47997637  0.00559631  0.38719876    -0.34400
N337        N  0.00626196  0.98476345  0.38830333    -0.26600
C338        C  0.01574962  0.97971842  0.37195409    -0.01800
C339        C  0.49325591  0.00458665  0.35892564     0.06800
C340        C  0.46913409  0.00825392  0.37064434     0.04900
H341        H  0.03902856  0.97446008  0.36900978     0.10000
H342        H  0.44467360  0.01150389  0.36735039     0.08800
N343        N  0.07929522  0.02258030  0.56922021    -0.25500
N344        N  0.06912476  0.03710453  0.55603588    -0.33400
C345        C  0.09255157  0.04361166  0.54242940     0.02800
C346        C  0.11865239  0.03225892  0.54692612     0.08800
C347        C  0.10945454  0.01884295  0.56408326    -0.04300
H348        H  0.08967374  0.05430711  0.52976556     0.09500
H349        H  0.12326748  0.00696622  0.57211387     0.10700
Cu350      Cu  0.52644573  0.05513021  0.55954594     0.44200
Cu351      Cu  0.04964296  0.00964003  0.59311369     0.42000
Cu352      Cu  0.45754116  0.01108938  0.59347225     0.43900
N353        N  0.47192198  0.04841236  0.55820380    -0.32900
N354        N  0.44510111  0.03032250  0.57010267    -0.27200
C355        C  0.41172374  0.02675484  0.56399694    -0.03300
C356        C  0.41833351  0.04376534  0.54751384     0.08900
C357        C  0.45674306  0.05716096  0.54440222     0.02700
H358        H  0.38469167  0.01210825  0.57080400     0.10400
H359        H  0.47207146  0.07041767  0.53247599     0.09500
N360        N  0.48240580  0.00091659  0.61566746    -0.34400
N361        N  0.01548167  0.00387946  0.61497556    -0.26600
C362        C  0.02365422  0.00038697  0.63192549    -0.01800
C363        C  0.49368276  0.99221157  0.64349236     0.06800
C364        C  0.46759236  0.99366444  0.63198464     0.04900
H365        H  0.04906349  0.99974553  0.63624683     0.10000
H366        H  0.44027437  0.99100655  0.63535887     0.08800
N367        N  0.95962337  0.90571418  0.10273648    -0.25500
N368        N  0.94893077  0.92009486  0.11574496    -0.33400
C369        C  0.94272725  0.89879377  0.13018663     0.02800
C370        C  0.95035111  0.86972722  0.12639087     0.08800
C371        C  0.96113941  0.87489719  0.10878742    -0.04300
H372        H  0.93508960  0.90523220  0.14290166     0.09500
H373        H  0.96995046  0.85800645  0.10107059     0.10700
Cu374      Cu  0.95696004  0.47697915  0.11537232     0.44200
Cu375      Cu  0.97167231  0.93152115  0.07789724     0.42000
Cu376      Cu  0.99341912  0.53909171  0.07777904     0.43900
N377        N  0.96582790  0.53241093  0.11503134    -0.32900
N378        N  0.97981767  0.55593929  0.10153159    -0.27200
C379        C  0.98569704  0.59077845  0.10653177    -0.03300
C380        C  0.97444180  0.58875078  0.12392449     0.08900
C381        C  0.96265269  0.55152802  0.12887055     0.02700
H382        H  0.99980267  0.61631262  0.09858174     0.10400
H383        H  0.95501820  0.53996769  0.14200412     0.09500
N384        N  0.99696365  0.50975543  0.05563772    -0.34400
N385        N  0.97943314  0.96307610  0.05483269    -0.26600
C386        C  0.97981942  0.95068836  0.03833940    -0.01800
C387        C  0.99722221  0.49179028  0.02793215     0.06800
C388        C  0.00197890  0.52176237  0.03877690     0.04900
H389        H  0.97598540  0.92271948  0.03512607     0.10000
H390        H  0.00646281  0.54942019  0.03466057     0.08800
N391        N  0.51387242  0.56206878  0.23688240    -0.25500
N392        N  0.52761985  0.55095052  0.22379245    -0.33400
C393        C  0.53196525  0.57229099  0.20958723     0.02800
C394        C  0.52046397  0.59844204  0.21355825     0.08800
C395        C  0.50889850  0.59119148  0.23108898    -0.04300
H396        H  0.54208398  0.56841428  0.19697282     0.09500
H397        H  0.49777314  0.60584925  0.23897073     0.10700
Cu398      Cu  0.54656378  0.01005407  0.22376477     0.44200
Cu399      Cu  0.50415073  0.53450385  0.26143942     0.42000
Cu400      Cu  0.51599856  0.94794922  0.25974451     0.43900
N401        N  0.54218523  0.95656554  0.22274031    -0.32900
N402        N  0.52885730  0.93176886  0.23575829    -0.27200
C403        C  0.52556540  0.89822990  0.23019702    -0.03300
C404        C  0.53795482  0.90273425  0.21286361     0.08900
C405        C  0.54826382  0.94002520  0.20869933     0.02700
H406        H  0.51454201  0.87258351  0.23803301     0.10400
H407        H  0.55777163  0.95359601  0.19603874     0.09500
N408        N  0.50859280  0.97490839  0.28172497    -0.34400
N409        N  0.50283805  0.50235512  0.28362435    -0.26600
C410        C  0.50048675  0.51126525  0.30058414    -0.01800
C411        C  0.50431651  0.98898561  0.30959796     0.06800
C412        C  0.50925219  0.96457732  0.29850279     0.04900
H413        H  0.49801068  0.53574297  0.30471881     0.10000
H414        H  0.51377054  0.94124989  0.30237904     0.08800
C415        C  0.50882195  0.81185337  0.18476665    -0.09100
C416        C  0.50217273  0.82528990  0.16885422    -0.03000
C417        C  0.97575542  0.80626778  0.15511882    -0.09100
C418        C  0.97492219  0.77062068  0.15506231     0.11900
C419        C  0.49934308  0.75432912  0.16880673    -0.00900
C420        C  0.50656033  0.77551752  0.18487665     0.11700
C421        C  0.51213259  0.76014873  0.20050029    -0.10900
C422        C  0.50968340  0.72429537  0.20056617    -0.10900
C423        C  0.50181393  0.70236794  0.18499891     0.11700
C424        C  0.49726062  0.71782596  0.16884509    -0.00900
C425        C  0.96700060  0.74860144  0.13951484    -0.11000
C426        C  0.96628176  0.71361498  0.13946244    -0.11000
C427        C  0.97260707  0.69869973  0.15503752     0.11900
C428        C  0.97208170  0.66319921  0.15502111    -0.09100
C429        C  0.49074628  0.64523394  0.16902528    -0.03000
C430        C  0.49881228  0.66564276  0.18503377    -0.09100
H431        H  0.51850248  0.77575182  0.21287699     0.09100
H432        H  0.51421551  0.71400006  0.21300324     0.09100
H433        H  0.96130711  0.75822149  0.12715272     0.09300
H434        H  0.96059752  0.69834319  0.12703051     0.09300
H435        H  0.50316466  0.85265685  0.16891983     0.05700
H436        H  0.48530412  0.61602354  0.16926417     0.05700
C437        C  0.18079482  0.67856483  0.82058642    -0.09100
C438        C  0.16110450  0.66653558  0.83653143    -0.03000
C439        C  0.17552918  0.68709738  0.85237838    -0.09100
C440        C  0.21174809  0.72135570  0.85238268     0.11900
C441        C  0.23169259  0.73519542  0.83622651    -0.00900
C442        C  0.21595739  0.71395948  0.82025698     0.11700
C443        C  0.23608251  0.72845738  0.80449190    -0.10900
C444        C  0.27052410  0.76342753  0.80424348    -0.10900
C445        C  0.28681706  0.78489913  0.81979742     0.11700
C446        C  0.26741047  0.77044659  0.83602790    -0.00900
C447        C  0.22814097  0.74265160  0.86796451    -0.11000
C448        C  0.26332974  0.77682267  0.86782284    -0.11000
C449        C  0.28338379  0.79133592  0.85204064     0.11900
C450        C  0.31856299  0.82661483  0.85176388    -0.09100
C451        C  0.33713691  0.84010802  0.83563269    -0.03000
C452        C  0.32168712  0.82063649  0.81958614    -0.09100
H453        H  0.22527030  0.71304725  0.79214427     0.09100
H454        H  0.28427406  0.77346182  0.79163445     0.09100
H455        H  0.21372512  0.73328237  0.88047278     0.09300
H456        H  0.27435371  0.79208060  0.88019464     0.09300
H457        H  0.13374315  0.64002070  0.83664284     0.05700
H458        H  0.36501188  0.86606517  0.83566501     0.05700
C459        C  0.18255148  0.00632122  0.51921685    -0.09100
C460        C  0.16204437  0.99907476  0.50330155    -0.03000
C461        C  0.17754814  0.99811393  0.48697161    -0.09100
C462        C  0.21368667  0.00001071  0.48667532     0.11900
C463        C  0.23448297  0.00540688  0.50277698    -0.00900
C464        C  0.21898016  0.00883981  0.51907451     0.11700
C465        C  0.24063064  0.01540092  0.53466163    -0.10900
C466        C  0.27659805  0.01814531  0.53442724    -0.10900
C467        C  0.29240265  0.01440530  0.51859029     0.11700
C468        C  0.27125164  0.00821306  0.50253876    -0.00900
C469        C  0.22982968  0.99716901  0.47078409    -0.11000
C470        C  0.26543641  0.99910311  0.47060036    -0.11000
C471        C  0.28675039  0.00482981  0.48625227     0.11900
C472        C  0.32282428  0.00658110  0.48616065    -0.09100
C473        C  0.34334429  0.01349700  0.50209087    -0.03000
C474        C  0.32914450  0.01757592  0.51827544    -0.09100
H475        H  0.23000307  0.01867113  0.54723054     0.09100
H476        H  0.29206481  0.02360514  0.54683370     0.09100
H477        H  0.21496722  0.99318412  0.45831268     0.09300
H478        H  0.27613943  0.99616172  0.45800159     0.09300
H479        H  0.13315379  0.99462011  0.50363000     0.05700
H480        H  0.37103695  0.01512340  0.50188492     0.05700
C481        C  0.50288975  0.64652812  0.20133233    -0.14700
C482        C  0.52063618  0.62561882  0.20031599    -0.29900
H483        H  0.48953537  0.64754462  0.21352845     0.14300
H484        H  0.02810630  0.63699397  0.18871259     0.14900
C485        C  0.53779530  0.87496392  0.19995244    -0.14700
C486        C  0.51617586  0.83638350  0.20095426    -0.29900
H487        H  0.03773080  0.89040100  0.18913406     0.14300
H488        H  0.50090295  0.82322994  0.21297106     0.14900
C489        C  0.96600920  0.63931404  0.13875775    -0.14700
C490        C  0.98579463  0.62070701  0.13656443    -0.29900
H491        H  0.46056093  0.63416476  0.12669549     0.14300
H492        H  0.00810652  0.62525445  0.14606303     0.14900
C493        C  0.94986200  0.84287641  0.13982003    -0.14700
C494        C  0.96932312  0.82370676  0.13888137    -0.29900
H495        H  0.45465015  0.84134112  0.15006088     0.14300
H496        H  0.98327237  0.82368742  0.12671708     0.14900
C497        C  0.39154461  0.04459641  0.53422892    -0.14700
C498        C  0.35290866  0.02272193  0.53454457    -0.29900
H499        H  0.40154566  0.55759308  0.52060819     0.14300
H500        H  0.33903264  0.00599721  0.54614369     0.14900
C501        C  0.14670991  0.03256932  0.53432651    -0.14700
C502        C  0.16436835  0.01162344  0.53539189    -0.29900
H503        H  0.14610980  0.54893054  0.51702278     0.14300
H504        H  0.16264940  0.99608021  0.54732693     0.14900
C505        C  0.49111105  0.00517986  0.33941136    -0.14700
C506        C  0.50632231  0.98909201  0.32910643    -0.29900
H507        H  0.47535428  0.51327017  0.33580302     0.14300
H508        H  0.96442432  0.00997603  0.33430233     0.14900
C509        C  0.34071799  0.00148765  0.46986946    -0.14700
C510        C  0.35811344  0.98032142  0.47052266    -0.29900
H511        H  0.33753576  0.50054090  0.45779979     0.14300
H512        H  0.35536534  0.96421438  0.48242111     0.14900
C513        C  0.13591332  0.01553023  0.47023158    -0.14700
C514        C  0.15456645  0.99551057  0.47078046    -0.29900
H515        H  0.14022253  0.52975294  0.47150123     0.14300
H516        H  0.15000949  0.97495624  0.46039081     0.14900
C517        C  0.48913532  0.98650555  0.66283417    -0.14700
C518        C  0.51934992  0.00031685  0.67406295    -0.29900
H519        H  0.54102810  0.53160944  0.66963921     0.14300
H520        H  0.04951329  0.01944584  0.66752409     0.14900
C521        C  0.34435105  0.83798397  0.80318028    -0.14700
C522        C  0.36269859  0.87629506  0.80078820    -0.29900
H523        H  0.34942426  0.82000043  0.79417124     0.14300
H524        H  0.35798758  0.89401647  0.81012980     0.14900
C525        C  0.16258363  0.65330873  0.80466516    -0.14700
C526        C  0.14476166  0.61480013  0.80618281    -0.29900
H527        H  0.16083944  0.66594936  0.79232819     0.14300
H528        H  0.14737060  0.60280442  0.81856363     0.14900
C529        C  0.01421046  0.51939207  0.99795615    -0.14700
C530        C  0.99554556  0.48896865  0.00847580    -0.29900
H531        H  0.52704720  0.53224829  0.00238434     0.14300
H532        H  0.97319820  0.94753462  0.00112729     0.14900
C533        C  0.35364541  0.88864529  0.86756555    -0.14700
C534        C  0.33775833  0.85022411  0.86796947    -0.29900
H535        H  0.34891330  0.90142054  0.85589023     0.14300
H536        H  0.34130203  0.83649767  0.87955914     0.14900
C537        C  0.11363429  0.65311907  0.86789371    -0.14700
C538        C  0.15229714  0.67017410  0.86862982    -0.29900
H539        H  0.10007851  0.65614761  0.85602831     0.14300
H540        H  0.16649754  0.66826514  0.88050047     0.14900
N541        N  0.92247756  0.44890080  0.90607388    -0.25500
N542        N  0.93116251  0.47397965  0.89327407    -0.33400
C543        C  0.90668975  0.45707828  0.87966509     0.02800
C544        C  0.88139822  0.41922742  0.88373777     0.08800
C545        C  0.89217977  0.41482078  0.90070215    -0.04300
H546        H  0.90866798  0.47075998  0.86717884     0.09500
H547        H  0.87981380  0.38877839  0.90829174     0.10700
Cu548      Cu  0.97990534  0.52828243  0.89319575     0.44200
Cu549      Cu  0.95527427  0.46528086  0.92952433     0.42000
Cu550      Cu  0.54536425  0.05437277  0.92557755     0.43900
N551        N  0.53064995  0.07494424  0.88992334    -0.32900
N552        N  0.55718967  0.08520852  0.90240980    -0.27200
C553        C  0.58978350  0.11634555  0.89709204    -0.03300
C554        C  0.58300886  0.12616577  0.88047719     0.08900
C555        C  0.54528193  0.09929752  0.87642154     0.02700
H556        H  0.61650713  0.13014850  0.90459095     0.10400
H557        H  0.53013580  0.09644949  0.86410354     0.09500
N558        N  0.52232301  0.02124747  0.94788443    -0.34400
N559        N  0.99148338  0.49519814  0.95107759    -0.26600
C560        C  0.98302471  0.48660988  0.96819582    -0.01800
C561        C  0.51218026  0.00430105  0.97589524     0.06800
C562        C  0.53549059  0.03284465  0.96443152     0.04900
H563        H  0.95672151  0.46227843  0.97277812     0.10000
H564        H  0.55982378  0.06059916  0.96790213     0.08800
N565        N  0.57953369  0.06104676  0.77044779    -0.25500
N566        N  0.56187363  0.04001943  0.78428270    -0.33400
C567        C  0.58253997  0.05722044  0.79890622     0.02800
C568        C  0.61467031  0.09121415  0.79426766     0.08800
C569        C  0.61193436  0.09301313  0.77603432    -0.04300
H570        H  0.57424620  0.04623172  0.81208304     0.09500
H571        H  0.63206524  0.11538008  0.76752085     0.10700
Cu572      Cu  0.01720209  0.48008265  0.78286668     0.44200
Cu573      Cu  0.55648060  0.04118013  0.74519998     0.42000
Cu574      Cu  0.95553766  0.45219070  0.74541478     0.43900
N575        N  0.96136521  0.43470452  0.78325110    -0.32900
N576        N  0.93738715  0.42442928  0.76963578    -0.27200
C577        C  0.90192501  0.39800077  0.77502489    -0.03300
C578        C  0.90407554  0.39141993  0.79285373     0.08900
C579        C  0.94206080  0.41555871  0.79756861     0.02700
H580        H  0.87606988  0.38694461  0.76699963     0.10400
H581        H  0.95414388  0.42119365  0.81079856     0.09500
N582        N  0.98452129  0.48189625  0.72279542    -0.34400
N583        N  0.52775799  0.01211735  0.72198342    -0.26600
C584        C  0.54191862  0.02278079  0.70567843    -0.01800
C585        C  0.99917948  0.49639771  0.69465836     0.06800
C586        C  0.97094358  0.47233864  0.70613953     0.04900
H587        H  0.56976555  0.04732926  0.70286225     0.10000
H588        H  0.94260953  0.44901062  0.70260159     0.08800
N589        N  0.56867624  0.49699875  0.43515208    -0.25500
N590        N  0.54747500  0.48711733  0.44948214    -0.33400
C591        C  0.56955699  0.49052249  0.46354278     0.02800
C592        C  0.60636291  0.50237346  0.45793790     0.08800
C593        C  0.60502206  0.50669928  0.43982927    -0.04300
H594        H  0.55996850  0.48656136  0.47705123     0.09500
H595        H  0.62906102  0.51830762  0.43094246     0.10700
Cu596      Cu  0.98660567  0.47279899  0.44757189     0.44200
Cu597      Cu  0.54602919  0.49994952  0.41056392     0.42000
Cu598      Cu  0.94420921  0.49763817  0.41192825     0.43900
N599        N  0.93809299  0.47790755  0.45028881    -0.32900
N600        N  0.92284627  0.48881545  0.43766877    -0.27200
C601        C  0.89336367  0.49166227  0.44449773    -0.01500
C602        C  0.88997700  0.48159000  0.46219192     0.08900
C603        C  0.91875201  0.47308107  0.46525386     0.02700
H604        H  0.87565000  0.50009140  0.43713645     0.10400
H605        H  0.92577115  0.46479308  0.47768791     0.09500
N606        N  0.97102902  0.49948061  0.38800892    -0.34400
N607        N  0.51412448  0.50028738  0.38855997    -0.26600
C608        C  0.52344792  0.50103493  0.37146631    -0.01800
C609        C  0.98274145  0.50005511  0.35937058     0.06800
C610        C  0.95834080  0.50147914  0.37172938     0.04900
H611        H  0.54924827  0.50173877  0.36696277     0.10000
H612        H  0.93275793  0.50318429  0.36905714     0.08800
N613        N  0.58480565  0.53649250  0.56986455    -0.25500
N614        N  0.57430772  0.55055686  0.55662706    -0.33400
C615        C  0.59705603  0.55589665  0.54283063     0.02800
C616        C  0.62310709  0.54439024  0.54739245     0.08800
C617        C  0.61448872  0.53206792  0.56470131    -0.04300
H618        H  0.59383947  0.56597641  0.53006638     0.09500
H619        H  0.62835976  0.52039686  0.57284050     0.10700
Cu620      Cu  0.02797681  0.55139399  0.55838551     0.44200
Cu621      Cu  0.55605684  0.52479595  0.59381819     0.42000
Cu622      Cu  0.96907109  0.51523183  0.59636888     0.43900
N623        N  0.97388790  0.54550634  0.55991281    -0.32900
N624        N  0.95013170  0.52972958  0.57319327    -0.27200
C625        C  0.91571064  0.52604647  0.56863743    -0.03300
C626        C  0.91865541  0.54085672  0.55178179     0.08900
C627        C  0.95591347  0.55288786  0.54685920     0.02700
H628        H  0.89054351  0.51330842  0.57683595     0.10400
H629        H  0.96854586  0.56449559  0.53423272     0.09500
N630        N  0.00039250  0.50981351  0.61752867    -0.34400
N631        N  0.52457297  0.52094130  0.61627013    -0.26600
C632        C  0.53638101  0.52124472  0.63296026    -0.01800
C633        C  0.02068408  0.50756522  0.64469899     0.06800
C634        C  0.99141026  0.50733396  0.63475700     0.04900
H635        H  0.56332327  0.52296815  0.63655907     0.10000
H636        H  0.96609958  0.50702826  0.63971816     0.08800
N637        N  0.46934510  0.40120753  0.10154005    -0.25500
N638        N  0.46144609  0.41646770  0.11518942    -0.33400
C639        C  0.45818366  0.39601770  0.12963658     0.02800
C640        C  0.46482875  0.36658651  0.12512177     0.08800
C641        C  0.47199371  0.37070068  0.10712670    -0.04300
H642        H  0.45286052  0.40303326  0.14273263     0.09500
H643        H  0.47872425  0.35302832  0.09876781     0.10700
Cu644      Cu  0.47034422  0.97340865  0.11342946     0.44200
Cu645      Cu  0.47628715  0.42542457  0.07649649     0.42000
Cu646      Cu  0.50189990  0.02998793  0.07455463     0.43900
N647        N  0.48255279  0.03004723  0.11261897    -0.32900
N648        N  0.49485070  0.05171991  0.09845315    -0.27200
C649        C  0.50457090  0.08804669  0.10299630    -0.03300
C650        C  0.49772125  0.08896026  0.12085471     0.08900
C651        C  0.48434655  0.05184061  0.12647021     0.02700
H652        H  0.51827605  0.11239652  0.09431391     0.10400
H653        H  0.47889654  0.04198240  0.13994710     0.09500
N654        N  0.50323509  0.99851040  0.05280048    -0.34400
N655        N  0.48343252  0.45752580  0.05369731    -0.26600
C656        C  0.48250589  0.44536390  0.03702099    -0.01800
C657        C  0.50228841  0.97921903  0.02522777     0.06800
C658        C  0.50624647  0.00919196  0.03581404     0.04900
H659        H  0.47697868  0.41693193  0.03343647     0.10000
H660        H  0.50928040  0.03615861  0.03148753     0.08800
N661        N  0.01170921  0.07281632  0.23527995    -0.25500
N662        N  0.02836002  0.06346013  0.22280954    -0.33400
C663        C  0.03412838  0.08578036  0.20875539     0.02800
C664        C  0.02032606  0.11038944  0.21232543     0.08800
C665        C  0.00619738  0.10137911  0.22934629    -0.04300
H666        H  0.04572544  0.08290389  0.19637654     0.09500
H667        H  0.99190620  0.11370847  0.23664521     0.10700
Cu668      Cu  0.03895084  0.51768111  0.22341016     0.44200
Cu669      Cu  0.99653603  0.04329935  0.25912522     0.42000
Cu670      Cu  0.00936568  0.45374941  0.25872342     0.43900
N671        N  0.03617397  0.46478380  0.22162095    -0.32900
N672        N  0.02291483  0.43940967  0.23441394    -0.27200
C673        C  0.01891403  0.40590282  0.22837258    -0.03300
C674        C  0.03064917  0.41079755  0.21093370     0.08900
C675        C  0.04150289  0.44851855  0.20721849     0.02700
H676        H  0.00724064  0.37977700  0.23590612     0.10400
H677        H  0.05030824  0.46237198  0.19458426     0.09500
N678        N  0.99956795  0.47725467  0.28135170    -0.34400
N679        N  0.98922748  0.01099326  0.28177488    -0.26600
C680        C  0.98225924  0.01962870  0.29799630    -0.01800
C681        C  0.99414100  0.48892365  0.30947865     0.06800
C682        C  0.00146580  0.46674784  0.29796519     0.04900
H683        H  0.97851285  0.04385169  0.30104809     0.10000
H684        H  0.00850486  0.44489399  0.30145480     0.08800
C685        C  0.99907873  0.31802318  0.18331146    -0.09100
C686        C  0.99071646  0.33005004  0.16740154    -0.03000
C687        C  0.49407762  0.30451638  0.15278459    -0.09100
C688        C  0.49659356  0.27053921  0.15238433     0.11900
C689        C  0.98736430  0.25883562  0.16801514    -0.00900
C690        C  0.99665685  0.28153290  0.18375215     0.11700
C691        C  0.00409344  0.26743006  0.19933676    -0.10900
C692        C  0.00208395  0.23174700  0.19963898    -0.10900
C693        C  0.99262577  0.20861607  0.18437185     0.11700
C694        C  0.98538124  0.22237629  0.16832077    -0.00900
C695        C  0.49152140  0.24998857  0.13659537    -0.11000
C696        C  0.49376580  0.21649476  0.13629639    -0.11000
C697        C  0.50028342  0.20155203  0.15183873     0.11900
C698        C  0.50194965  0.16712630  0.15162280    -0.09100
C699        C  0.98061220  0.15051766  0.16893187    -0.03000
C700        C  0.99084415  0.17242611  0.18454929    -0.09100
H701        H  0.01188546  0.28400327  0.21146666     0.09100
H702        H  0.00832740  0.22257308  0.21201017     0.09100
H703        H  0.48576835  0.25959724  0.12424833     0.09300
H704        H  0.49024214  0.20239101  0.12367839     0.09300
H705        H  0.99156720  0.35733896  0.16712884     0.05700
H706        H  0.97636716  0.12174306  0.16941028     0.05700
C707        C  0.68101994  0.18152295  0.82205950    -0.09100
C708        C  0.65986836  0.16955713  0.83761051    -0.03000
C709        C  0.67293796  0.18991842  0.85358565    -0.09100
C710        C  0.70922298  0.22407935  0.85419811     0.11900
C711        C  0.73102284  0.23764816  0.83852252    -0.00900
C712        C  0.71664400  0.21657554  0.82236677     0.11700
C713        C  0.73853857  0.23091285  0.80707787    -0.10900
C714        C  0.77369905  0.26514338  0.80748447    -0.10900
C715        C  0.78893133  0.28614350  0.82328318     0.11700
C716        C  0.76731667  0.27237771  0.83900699    -0.00900
C717        C  0.72389745  0.24550567  0.86991882    -0.11000
C718        C  0.75942421  0.27941543  0.87039641    -0.11000
C719        C  0.78173007  0.29336060  0.85517327     0.11900
C720        C  0.81774877  0.32800439  0.85554078    -0.09100
C721        C  0.83889681  0.34010411  0.83995492    -0.03000
C722        C  0.82498648  0.32068507  0.82377014    -0.09100
H723        H  0.72868165  0.21579546  0.79458206     0.09100
H724        H  0.78877187  0.27490817  0.79517695     0.09100
H725        H  0.70785785  0.23642617  0.88201628     0.09300
H726        H  0.76913269  0.29478753  0.88284432     0.09300
H727        H  0.63232631  0.14328568  0.83730967     0.05700
H728        H  0.86755850  0.36491421  0.84060192     0.05700
C729        C  0.68771146  0.51638463  0.52109985    -0.09100
C730        C  0.66846949  0.50959740  0.50481043    -0.03000
C731        C  0.68350099  0.50498724  0.48901540    -0.09100
C732        C  0.71842880  0.50431051  0.48965352     0.11900
C733        C  0.73784015  0.50913536  0.50612959    -0.00900
C734        C  0.72244465  0.51516693  0.52190914     0.11700
C735        C  0.74248109  0.52023398  0.53792249    -0.10900
C736        C  0.77669813  0.51916282  0.53857530    -0.10900
C737        C  0.79250582  0.51329365  0.52322518     0.11700
C738        C  0.77298372  0.50836638  0.50677485    -0.00900
C739        C  0.73460905  0.49920093  0.47426800    -0.11000
C740        C  0.76882318  0.49836351  0.47490201    -0.11000
C741        C  0.78869121  0.50308756  0.49091846     0.11900
C742        C  0.82357063  0.50224915  0.49154848    -0.09100
C743        C  0.84216139  0.50742026  0.50791876    -0.03000
C744        C  0.82787543  0.51337972  0.52370691    -0.09100
H745        H  0.73197036  0.52526390  0.55014152     0.09100
H746        H  0.79093377  0.52339639  0.55125022     0.09100
H747        H  0.72098495  0.49585470  0.46150879     0.09300
H748        H  0.77938003  0.49374603  0.46260553     0.09300
H749        H  0.64027300  0.50685478  0.50449341     0.05700
H750        H  0.86915914  0.50763125  0.50841556     0.05700
C751        C  0.99869228  0.15544312  0.20060349    -0.14700
C752        C  0.01793669  0.13604218  0.19899908    -0.29900
H753        H  0.98661705  0.15650811  0.21316853     0.14300
H754        H  0.55381309  0.13763046  0.18780280     0.14900
C755        C  0.02837350  0.38260657  0.19758438    -0.14700
C756        C  0.00811992  0.34395731  0.19918225    -0.29900
H757        H  0.55086184  0.38764601  0.18782454     0.14300
H758        H  0.99540364  0.33147510  0.21174734     0.14900
C759        C  0.49457937  0.14280138  0.13535442    -0.14700
C760        C  0.51265961  0.12260437  0.13282586    -0.29900
H761        H  0.94376294  0.13462858  0.12768599     0.14300
H762        H  0.53547714  0.12661063  0.14188509     0.14900
C763        C  0.46541685  0.33940935  0.13807054    -0.14700
C764        C  0.48626377  0.32165002  0.13675487    -0.29900
H765        H  0.93836629  0.34096449  0.14929045     0.14300
H766        H  0.50053849  0.32297369  0.12449140     0.14900
C767        C  0.89005827  0.54196011  0.53964131    -0.14700
C768        C  0.85146522  0.51924648  0.54018512    -0.29900
H769        H  0.90270768  0.06066249  0.52088810     0.14300
H770        H  0.83798848  0.50182232  0.55165922     0.14900
C771        C  0.65084206  0.54354683  0.53490555    -0.14700
C772        C  0.66912976  0.52323812  0.53677191    -0.29900
H773        H  0.64848221  0.05410395  0.52214357     0.14300
H774        H  0.66763707  0.50917248  0.54914924     0.14900
C775        C  0.97956161  0.50141135  0.33987490    -0.14700
C776        C  0.99677199  0.48834342  0.32897925    -0.29900
H777        H  0.00933786  0.96700829  0.33538673     0.14300
H778        H  0.52155909  0.47161819  0.33681667     0.14900
C779        C  0.84301718  0.49848409  0.47539075    -0.14700
C780        C  0.86339036  0.48016552  0.47597166    -0.29900
H781        H  0.83900860  0.02143068  0.45712144     0.14300
H782        H  0.86282695  0.46502361  0.48787455     0.14900
C783        C  0.64013631  0.51687525  0.46987890    -0.14700
C784        C  0.66007440  0.49846880  0.47245011    -0.29900
H785        H  0.62830909  0.02743930  0.47823038     0.14300
H786        H  0.65583845  0.47567576  0.46338275     0.14900
C787        C  0.02517220  0.50824193  0.66421839    -0.14700
C788        C  0.99523443  0.49611155  0.67516029    -0.29900
H789        H  0.96173167  0.98174220  0.66731681     0.14300
H790        H  0.45396655  0.49946069  0.66897305     0.14900
C791        C  0.85012312  0.33646700  0.80793658    -0.14700
C792        C  0.87252426  0.37456891  0.80560384    -0.29900
H793        H  0.85229624  0.31686976  0.79875996     0.14300
H794        H  0.87094361  0.39453019  0.81477107     0.14900
C795        C  0.66352097  0.15675678  0.80585486    -0.14700
C796        C  0.64353447  0.11811342  0.80721550    -0.29900
H797        H  0.66332389  0.17005343  0.79345976     0.14300
H798        H  0.64435679  0.10536885  0.81968578     0.14900
C799        C  0.51485320  0.00709359  0.99536844    -0.14700
C800        C  0.50015217  0.97611865  0.00573309    -0.29900
H801        H  0.01726623  0.03551690  0.00248716     0.14300
H802        H  0.47487286  0.44480056  0.99979829     0.14900
C803        C  0.85371599  0.39103918  0.87068946    -0.14700
C804        C  0.83554556  0.35238289  0.87182411    -0.29900
H805        H  0.85111498  0.40332715  0.85836310     0.14300
H806        H  0.83658457  0.33898203  0.88404030     0.14900
C807        C  0.60982950  0.15479850  0.86794466    -0.14700
C808        C  0.64844399  0.17256542  0.86941245    -0.29900
H809        H  0.59698221  0.15789668  0.85585851     0.14300
H810        H  0.66182922  0.17051252  0.88153316     0.14900
N811        N  0.92631081  0.94179890  0.90174815    -0.25500
N812        N  0.93379048  0.96797856  0.88959533    -0.33400
C813        C  0.91132039  0.95122340  0.87536944     0.02800
C814        C  0.88853213  0.91243862  0.87842507     0.08800
C815        C  0.89874232  0.90724141  0.89535049    -0.04300
H816        H  0.91283950  0.96595964  0.86327011     0.09500
H817        H  0.88768782  0.88045047  0.90230069     0.10700
Cu818      Cu  0.97830491  0.02433374  0.89114504     0.44200
Cu819      Cu  0.95595041  0.95696645  0.92607998     0.42000
Cu820      Cu  0.55035295  0.55306031  0.92609934     0.43900
N821        N  0.54065379  0.57025136  0.88870941    -0.32900
N822        N  0.56625547  0.58075473  0.90167775    -0.27200
C823        C  0.60030520  0.60973119  0.89597762    -0.03300
C824        C  0.59534657  0.61784201  0.87864775     0.08900
C825        C  0.55724303  0.59224196  0.87463884     0.02700
H826        H  0.62657865  0.62366122  0.90380302     0.10400
H827        H  0.54282120  0.58895238  0.86205913     0.09500
N828        N  0.52372907  0.52032097  0.94854288    -0.34400
N829        N  0.98746764  0.98610519  0.94891240    -0.26600
C830        C  0.97790317  0.97472613  0.96574447    -0.01800
C831        C  0.50956068  0.50255318  0.97646256     0.06800
C832        C  0.53508765  0.53103846  0.96541310     0.04900
H833        H  0.95306730  0.94792096  0.96948960     0.10000
H834        H  0.55972491  0.55816493  0.96939436     0.08800
N835        N  0.57786806  0.55981237  0.76744440    -0.25500
N836        N  0.56528764  0.53524650  0.78060152    -0.33400
C837        C  0.59025887  0.54975071  0.79419642     0.02800
C838        C  0.61986091  0.58557802  0.78970702     0.08800
C839        C  0.61115261  0.59130419  0.77259434    -0.04300
H840        H  0.58604747  0.53609112  0.80685724     0.09500
H841        H  0.62735969  0.61647281  0.76463100     0.10700
Cu842      Cu  0.02270573  0.97918910  0.78131860     0.44200
Cu843      Cu  0.54698784  0.54702867  0.74354376     0.42000
Cu844      Cu  0.96577510  0.95044067  0.74119558     0.43900
N845        N  0.96641506  0.93383207  0.77980595    -0.32900
N846        N  0.94479558  0.92295874  0.76532122    -0.27200
C847        C  0.90873578  0.89566186  0.76958853    -0.03300
C848        C  0.90794725  0.88914836  0.78758504     0.08900
C849        C  0.94482353  0.91423546  0.79355235     0.02700
H850        H  0.88436265  0.88364169  0.76055697     0.10400
H851        H  0.95464615  0.91969862  0.80716723     0.09500
N852        N  0.99722904  0.98325969  0.71963623    -0.34400
N853        N  0.51003469  0.52353258  0.72155611    -0.26600
C854        C  0.51854963  0.53481855  0.70467529    -0.01800
C855        C  0.01714951  0.00250438  0.69235854     0.06800
C856        C  0.98705320  0.97578231  0.70242479     0.04900
H857        H  0.54601334  0.55794403  0.70041483     0.10000
H858        H  0.96026218  0.95181772  0.69758727     0.08800
N859        N  0.55881491  0.98763447  0.43264801    -0.25500
N860        N  0.53618092  0.97740148  0.44646844    -0.33400
C861        C  0.55647755  0.97960207  0.46099349     0.02800
C862        C  0.59365521  0.99111685  0.45621588     0.08800
C863        C  0.59438995  0.99628422  0.43810082    -0.04300
H864        H  0.54569953  0.97602038  0.47428374     0.09500
H865        H  0.61947697  0.00862505  0.42984155     0.10700
Cu866      Cu  0.99767226  0.00316651  0.44875586     0.44200
Cu867      Cu  0.53935439  0.99503163  0.40815926     0.42000
Cu868      Cu  0.94855272  0.99846297  0.40877324     0.43900
N869        N  0.94477740  0.99988651  0.44807025    -0.32900
N870        N  0.92614531  0.99954241  0.43356201    -0.27200
C871        C  0.89214111  0.99622668  0.43821105    -0.01500
C872        C  0.88955715  0.99374308  0.45649855     0.08900
C873        C  0.92331282  0.99603821  0.46213592     0.02700
H874        H  0.87022145  0.99365474  0.42900861     0.10400
H875        H  0.93143567  0.99424928  0.47560189     0.09500
N876        N  0.97686080  0.99097597  0.38721677    -0.34400
N877        N  0.51033009  0.00094695  0.38645557    -0.26600
C878        C  0.51906882  0.00008419  0.36942334    -0.01800
C879        C  0.99181401  0.98327424  0.35991882     0.06800
C880        C  0.96747996  0.99043069  0.37003832     0.04900
H881        H  0.54263237  0.99650899  0.36504243     0.10000
H882        H  0.94424766  0.99443286  0.36530392     0.08800
N883        N  0.58311070  0.03075865  0.57081166    -0.25500
N884        N  0.57399139  0.04804581  0.55851035    -0.33400
C885        C  0.59664880  0.05487879  0.54454129     0.02800
C886        C  0.62118493  0.04091384  0.54787865     0.08800
C887        C  0.61185011  0.02566569  0.56474870    -0.04300
H888        H  0.59381008  0.06702496  0.53229995     0.09500
H889        H  0.62405470  0.01090890  0.57181658     0.10700
Cu890      Cu  0.02096364  0.04329784  0.55574810     0.44200
Cu891      Cu  0.55254313  0.01433690  0.59449706     0.42000
Cu892      Cu  0.95706803  0.01166134  0.59167895     0.43900
N893        N  0.96809886  0.04054741  0.55475443    -0.32900
N894        N  0.94296011  0.02716358  0.56763646    -0.27200
C895        C  0.91044392  0.02641418  0.56219095    -0.03300
C896        C  0.91593412  0.04049877  0.54512410     0.08900
C897        C  0.95275762  0.04912871  0.54095067     0.02700
H898        H  0.88485814  0.01627975  0.56999769     0.10400
H899        H  0.96689247  0.05958002  0.52848156     0.09500
N900        N  0.98240366  0.00367246  0.61434499    -0.34400
N901        N  0.51657812  0.00344879  0.61625586    -0.26600
C902        C  0.52441045  0.99853114  0.63306354    -0.01800
C903        C  0.99433239  0.99752527  0.64244640     0.06800
C904        C  0.96869012  0.99950076  0.63082142     0.04900
H905        H  0.55067241  0.99957976  0.63736671     0.10000
H906        H  0.94224910  0.99882872  0.63416436     0.08800
N907        N  0.47914281  0.90655499  0.10127156    -0.25500
N908        N  0.46953999  0.92140831  0.11450301    -0.33400
C909        C  0.46355592  0.89991027  0.12887451     0.02800
C910        C  0.47020988  0.87027562  0.12475179     0.08800
C911        C  0.48018424  0.87533846  0.10706921    -0.04300
H912        H  0.45662158  0.90647091  0.14172506     0.09500
H913        H  0.48797993  0.85797394  0.09908491     0.10700
Cu914      Cu  0.46017222  0.46730550  0.11426906     0.44200
Cu915      Cu  0.49043902  0.93182255  0.07639674     0.42000
Cu916      Cu  0.48987756  0.52475023  0.07549297     0.43900
N917        N  0.46999104  0.52301928  0.11366836    -0.32900
N918        N  0.48191694  0.54526465  0.09967240    -0.27200
C919        C  0.49034110  0.58107778  0.10455835    -0.03300
C920        C  0.48306376  0.58096898  0.12245026     0.08900
C921        C  0.47070370  0.54382792  0.12770078     0.02700
H922        H  0.50363066  0.60587001  0.09611497     0.10400
H923        H  0.46539339  0.53338464  0.14108276     0.09500
N924        N  0.49027066  0.49336251  0.05334975    -0.34400
N925        N  0.49803908  0.96330423  0.05342221    -0.26600
C926        C  0.49703996  0.95068409  0.03683787    -0.01800
C927        C  0.48989380  0.47491330  0.02561421     0.06800
C928        C  0.49470652  0.50493695  0.03643501     0.04900
H929        H  0.49209597  0.92237403  0.03344759     0.10000
H930        H  0.49975607  0.53278592  0.03228690     0.08800
N931        N  0.00735381  0.56816444  0.23601693    -0.25500
N932        N  0.02643177  0.56191942  0.22355292    -0.33400
C933        C  0.03234914  0.58564201  0.21009132     0.02800
C934        C  0.01613466  0.60794428  0.21396213     0.08800
C935        C  0.00031653  0.59608170  0.23056649    -0.04300
H936        H  0.04591039  0.58533604  0.19786237     0.09500
H937        H  0.98420393  0.60627712  0.23794010     0.10700
Cu938      Cu  0.03715952  0.01671304  0.22421643     0.44200
Cu939      Cu  0.99280555  0.53712228  0.25958326     0.42000
Cu940      Cu  0.00429876  0.95429731  0.26128001     0.43900
N941        N  0.03246651  0.96274608  0.22423923    -0.32900
N942        N  0.01813034  0.93814301  0.23733417    -0.27200
C943        C  0.01335984  0.90388769  0.23186662    -0.03300
C944        C  0.02579327  0.90757161  0.21454680     0.08900
C945        C  0.03783475  0.94528584  0.21032702     0.02700
H946        H  0.00074443  0.87812844  0.23967153     0.10400
H947        H  0.04745512  0.95839858  0.19758786     0.09500
N948        N  0.99337999  0.98038047  0.28276847    -0.34400
N949        N  0.99193899  0.50569665  0.28178146    -0.26600
C950        C  0.98811355  0.51331425  0.29876873    -0.01800
C951        C  0.98267896  0.99390584  0.30985586     0.06800
C952        C  0.98978109  0.96937437  0.29974429     0.04900
H953        H  0.98335350  0.53631197  0.30303730     0.10000
H954        H  0.99225746  0.94529315  0.30436638     0.08800
C955        C  0.99243149  0.81466860  0.18681769    -0.09100
C956        C  0.98465498  0.82740273  0.17094153    -0.03000
C957        C  0.49440467  0.80493556  0.15287082    -0.09100
C958        C  0.49410706  0.76948055  0.15270837     0.11900
C959        C  0.98167264  0.75633995  0.17105778    -0.00900
C960        C  0.99022285  0.77828667  0.18699194     0.11700
C961        C  0.99729208  0.76364224  0.20249366    -0.10900
C962        C  0.99565105  0.72812408  0.20252109    -0.10900
C963        C  0.98699880  0.70578065  0.18703842     0.11700
C964        C  0.98018855  0.72012863  0.17107131    -0.00900
C965        C  0.48811701  0.74842752  0.13700336    -0.11000
C966        C  0.48701430  0.71321665  0.13697000    -0.11000
C967        C  0.49081223  0.69699271  0.15271252     0.11900
C968        C  0.48845398  0.66058986  0.15280145    -0.09100
C969        C  0.97680760  0.64892447  0.17105949    -0.03000
C970        C  0.98567521  0.66983414  0.18691973    -0.09100
H971        H  0.00447224  0.77968318  0.21477840     0.09100
H972        H  0.00155922  0.71845840  0.21482533     0.09100
H973        H  0.48412047  0.75892082  0.12451919     0.09300
H974        H  0.48278500  0.69869183  0.12442200     0.09300
H975        H  0.98575031  0.85483131  0.17087514     0.05700
H976        H  0.97334275  0.62043581  0.17122147     0.05700
C977        C  0.68890962  0.67339321  0.81814187    -0.09100
C978        C  0.67029331  0.65980908  0.83425274    -0.03000
C979        C  0.68479300  0.67977435  0.85025940    -0.09100
C980        C  0.72051160  0.71474457  0.85026723     0.11900
C981        C  0.74005125  0.72945182  0.83407105    -0.00900
C982        C  0.72394606  0.70894917  0.81795770     0.11700
C983        C  0.74361325  0.72427966  0.80216377    -0.10900
C984        C  0.77835166  0.75897918  0.80206612    -0.10900
C985        C  0.79509608  0.77968204  0.81775534     0.11700
C986        C  0.77564584  0.76494786  0.83395844    -0.00900
C987        C  0.73672611  0.73598019  0.86588186    -0.11000
C988        C  0.77138867  0.77080591  0.86576549    -0.11000
C989        C  0.79147144  0.78579181  0.85002238     0.11900
C990        C  0.82662047  0.82131391  0.84980763    -0.09100
C991        C  0.84584487  0.83417297  0.83378412    -0.03000
C992        C  0.83052571  0.81490601  0.81770497    -0.09100
H993        H  0.73241510  0.70948633  0.78970726     0.09100
H994        H  0.79192697  0.76946854  0.78946300     0.09100
H995        H  0.72250862  0.72603477  0.87840196     0.09300
H996        H  0.78215320  0.78596344  0.87817608     0.09300
H997        H  0.64328501  0.63293802  0.83432043     0.05700
H998        H  0.87413605  0.85956623  0.83393326     0.05700
C999        C  0.68191087  0.01227462  0.51890101    -0.09100
C1000       C  0.66034565  0.00377291  0.50319449    -0.03000
C1001       C  0.67386780  0.99892938  0.48694943    -0.09100
C1002       C  0.71002359  0.00085678  0.48646668     0.11900
C1003       C  0.73196129  0.00794499  0.50231519    -0.00900
C1004       C  0.71779895  0.01347235  0.51858929     0.11700
C1005       C  0.74024869  0.02068918  0.53398016    -0.10900
C1006       C  0.77560326  0.02203736  0.53356757    -0.10900
C1007       C  0.79022416  0.01665857  0.51770559     0.11700
C1008       C  0.76839477  0.00995290  0.50183709    -0.00900
C1009       C  0.72510069  0.99641985  0.47053000    -0.11000
C1010       C  0.76074786  0.99855682  0.47005987    -0.11000
C1011       C  0.78296121  0.00542233  0.48547266     0.11900
C1012       C  0.81908586  0.00729585  0.48504331    -0.09100
C1013       C  0.83989115  0.01401596  0.50086959    -0.03000
C1014       C  0.82649684  0.01876072  0.51715906    -0.09100
H1015       H  0.73075399  0.02552727  0.54654131     0.09100
H1016       H  0.79167467  0.02794246  0.54581753     0.09100
H1017       H  0.70967609  0.99155397  0.45816951     0.09300
H1018       H  0.77069587  0.99462636  0.45743171     0.09300
H1019       H  0.63172570  0.99991025  0.50377075     0.05700
H1020       H  0.86746431  0.01544703  0.50048097     0.05700
C1021       C  0.99309657  0.65224511  0.20282383    -0.14700
C1022       C  0.01375987  0.63437715  0.20113472    -0.29900
H1023       H  0.97956377  0.65151464  0.21524305     0.14300
H1024       H  0.53478813  0.62631675  0.18806319     0.14900
C1025       C  0.02325398  0.87868973  0.20150211    -0.14700
C1026       C  0.00134295  0.84011960  0.20287006    -0.29900
H1027       H  0.55338138  0.88742469  0.18789621     0.14300
H1028       H  0.98731931  0.82760406  0.21519996     0.14900
C1029       C  0.48136178  0.63629360  0.13651966    -0.14700
C1030       C  0.49728749  0.61384884  0.13486027    -0.29900
H1031       H  0.94354451  0.63464198  0.12934796     0.14300
H1032       H  0.51776614  0.61567221  0.14479414     0.14900
C1033       C  0.46911819  0.84254407  0.13786144    -0.14700
C1034       C  0.48825681  0.82298088  0.13673194    -0.29900
H1035       H  0.93562127  0.84204322  0.15204744     0.14300
H1036       H  0.50234167  0.82331960  0.12455329     0.14900
C1037       C  0.88937976  0.04374914  0.53252138    -0.14700
C1038       C  0.85064498  0.02350076  0.53325929    -0.29900
H1039       H  0.90222062  0.55942597  0.52799932     0.14300
H1040       H  0.83683359  0.00705271  0.54493366     0.14900
C1041       C  0.64686425  0.03937960  0.53436547    -0.14700
C1042       C  0.66488112  0.01873255  0.53523774    -0.29900
H1043       H  0.65362459  0.55817581  0.52253797     0.14300
H1044       H  0.66477186  0.00456313  0.54739323     0.14900
C1045       C  0.99319413  0.97988174  0.34050046    -0.14700
C1046       C  0.97811834  0.99457859  0.32921341    -0.29900
H1047       H  0.96163052  0.51205185  0.33442263     0.14300
H1048       H  0.51956313  0.97406170  0.33514267     0.14900
C1049       C  0.83761335  0.00436527  0.46841848    -0.14700
C1050       C  0.85780326  0.98588131  0.46855502    -0.29900
H1051       H  0.84297804  0.51311353  0.46341119     0.14300
H1052       H  0.85601664  0.96915685  0.48008122     0.14900
C1053       C  0.62616119  0.00601352  0.46882881    -0.14700
C1054       C  0.64837190  0.99004391  0.47098179    -0.29900
H1055       H  0.64402255  0.53928439  0.47910938     0.14300
H1056       H  0.64560513  0.96824121  0.46165491     0.14900
C1057       C  0.99029081  0.99316084  0.66188075    -0.14700
C1058       C  0.02069791  0.00513101  0.67288099    -0.29900
H1059       H  0.05367948  0.51781825  0.66967176     0.14300
H1060       H  0.54825203  0.01638440  0.66894600     0.14900
C1061       C  0.85403337  0.83173567  0.80147031    -0.14700
C1062       C  0.87442764  0.87009684  0.79923453    -0.29900
H1063       H  0.85778850  0.81300793  0.79236417     0.14300
H1064       H  0.87094248  0.88876783  0.80849940     0.14900
C1065       C  0.66913820  0.65017612  0.80184237    -0.14700
C1066       C  0.65050383  0.61146733  0.80226418    -0.29900
H1067       H  0.66624752  0.66455556  0.79036120     0.14300
H1068       H  0.65413899  0.59770163  0.81381768     0.14900
C1069       C  0.50958476  0.50434278  0.99603728    -0.14700
C1070       C  0.49008846  0.47302875  0.00605665    -0.29900
H1071       H  0.03263355  0.54772875  0.00370550     0.14300
H1072       H  0.48692250  0.94757554  0.99977433     0.14900
C1073       C  0.86278839  0.88450042  0.86485342    -0.14700
C1074       C  0.84523483  0.84589597  0.86591087    -0.29900
H1075       H  0.86011870  0.89698526  0.85262066     0.14300
H1076       H  0.84645024  0.83265509  0.87816280     0.14900
C1077       C  0.62275272  0.64507970  0.86569041    -0.14700
C1078       C  0.66146971  0.66212270  0.86651738    -0.29900
H1079       H  0.60958105  0.64832641  0.85373244     0.14300
H1080       H  0.67553988  0.66015701  0.87841433     0.14900
loop_ 
_geom_bond_atom_site_label_1 
_geom_bond_atom_site_label_2 
_geom_bond_distance 
_geom_bond_site_symmetry_2 
_ccdc_geom_bond_type 
N1            N2   1.322       .  A
N1            C5   1.354       .  A
N1           Cu9   2.090       .  S
N2            C3   1.342       .  A
N2           Cu8   2.077       .  S
C3            C4   1.382       .  A
C3            H6   1.081       .  S
C4            C5   1.390       .  A
C4          C263   1.480       .  S
C5            H7   1.080       .  S
Cu8         N821   2.078       .  S
Cu9          N19   2.093       .  S
Cu10         N12   2.092       .  S
Cu10         N18   2.096       .  S
N11          N12   1.321       .  A
N11          C15   1.341       .  A
N11        Cu818   2.070   1_455  S
N12          C13   1.353       .  A
C13          C14   1.392       .  A
C13          H16   1.083       .  S
C14          C15   1.381       .  A
C14         C267   1.482       .  S
C15          H17   1.084       .  S
N18         N829   1.327   1_445  A
N18          C22   1.347       .  A
N19         N828   1.326       .  A
N19          C20   1.349       .  A
C20         C831   1.387       .  A
C20          H23   1.082       .  S
C21          C22   1.382       .  A
C21         C830   1.389   1_445  A
C21         C259   1.487       .  S
C22          H24   1.083       .  S
N25          N26   1.321       .  A
N25          C29   1.355       .  A
N25         Cu33   2.095       .  S
N26          C27   1.343       .  A
N26        Cu842   2.078   1_545  S
C27          C28   1.383       .  A
C27          H30   1.081       .  S
C28          C29   1.392       .  A
C28         C256   1.484       .  S
C29          H31   1.081       .  S
Cu32         N35   2.074       .  S
Cu32        N836   2.073       .  S
Cu33         N43   2.098       .  S
Cu34         N36   2.090       .  S
Cu34         N42   2.092       .  S
N35          N36   1.321       .  A
N35          C39   1.343       .  A
N36          C37   1.351       .  A
C37          C38   1.387       .  A
C37          H40   1.083       .  S
C38          C39   1.382       .  A
C38         C252   1.475       .  S
C39          H41   1.082       .  S
N42         N853   1.326       .  A
N42          C46   1.347       .  A
N43         N852   1.326   1_445  A
N43          C44   1.346       .  A
C44         C855   1.382       .  A
C44          H47   1.084       .  S
C45          C46   1.382       .  A
C45         C854   1.388       .  A
C45         C248   1.484       .  S
C46          H48   1.082       .  S
N49          N50   1.320       .  A
N49          C53   1.354       .  A
N49         Cu57   2.095       .  S
N50          C51   1.343       .  A
N50        Cu596   2.074   1_455  S
C51          C52   1.382       .  A
C51          H54   1.083       .  S
C52          C53   1.391       .  A
C52         C243   1.479       .  S
C53          H55   1.082       .  S
Cu56         N59   2.078       .  S
Cu56        N590   2.078       .  S
Cu57         N67   2.097       .  S
Cu58         N60   2.088       .  S
Cu58         N66   2.090       .  S
N59          N60   1.321       .  A
N59          C63   1.342       .  A
N60          C61   1.352       .  A
C61          C62   1.389       .  A
C61          H64   1.082       .  S
C62          C63   1.382       .  A
C62         C240   1.480       .  S
C63          H65   1.083       .  S
N66         N607   1.326       .  A
N66          C70   1.347       .  A
N67         N606   1.327   1_455  A
N67          C68   1.347       .  A
C68         C609   1.386   1_455  A
C68          H71   1.083       .  S
C69          C70   1.382       .  A
C69         C608   1.387       .  A
C69         C235   1.483       .  S
C70          H72   1.083       .  S
N73          N74   1.321       .  A
N73          C77   1.352       .  A
N73         Cu81   2.092       .  S
N74          C75   1.342       .  A
N74        Cu620   2.072       .  S
C75          C76   1.381       .  A
C75          H78   1.083       .  S
C76          C77   1.391       .  A
C76         C231   1.481       .  S
C77          H79   1.083       .  S
Cu80         N83   2.080       .  S
Cu80        N614   2.081       .  S
Cu81         N91   2.095       .  S
Cu82         N84   2.104       .  S
Cu82         N90   2.106       .  S
N83          N84   1.323       .  A
N83          C87   1.342       .  A
N84          C85   1.356       .  A
C85          C86   1.393       .  A
C85          H88   1.081       .  S
C86          C87   1.381       .  A
C86         C227   1.485       .  S
C87          H89   1.082       .  S
N90         N631   1.327       .  A
N90          C94   1.351       .  A
N91         N630   1.327       .  A
N91          C92   1.348       .  A
C92         C633   1.384       .  A
C92          H95   1.083       .  S
C93          C94   1.389       .  A
C93         C632   1.381       .  A
C93         C247   1.484       .  S
C94          H96   1.083       .  S
N97          N98   1.320       .  A
N97         C101   1.353       .  A
N97        Cu105   2.083       .  S
N98          C99   1.341       .  A
N98        Cu374   2.076       .  S
C99         C100   1.382       .  A
C99         H102   1.084       .  S
C100        C101   1.389       .  A
C100        C223   1.480       .  S
C101        H103   1.083       .  S
Cu104       N107   2.073   1_565  S
Cu104       N368   2.072       .  S
Cu105       N115   2.085       .  S
Cu106       N108   2.105       .  S
Cu106       N114   2.107   1_545  S
N107        N108   1.322       .  A
N107        C111   1.343       .  A
N108        C109   1.354       .  A
C109        C110   1.391       .  A
C109        H112   1.082       .  S
C110        C111   1.381       .  A
C110        C220   1.478       .  S
C111        H113   1.082       .  S
N114        N385   1.327       .  A
N114        C118   1.351   1_565  A
N115        N384   1.326       .  A
N115        C116   1.343       .  A
C116        C387   1.379       .  A
C116        H119   1.084       .  S
C117        C118   1.389   1_565  A
C117        C386   1.383       .  A
C117        C260   1.487       .  S
C118        H120   1.083       .  S
N121        N122   1.322       .  A
N121        C125   1.356       .  A
N121       Cu129   2.104       .  S
N122        C123   1.340       .  A
N122       Cu398   2.072       .  S
C123        C124   1.380       .  A
C123        H126   1.084       .  S
C124        C125   1.394       .  A
C124        C212   1.485       .  S
C125        H127   1.083       .  S
Cu128       N131   2.068       .  S
Cu128       N392   2.068       .  S
Cu129       N139   2.106       .  S
Cu130       N132   2.092       .  S
Cu130       N138   2.097       .  S
N131        N132   1.320       .  A
N131        C135   1.341       .  A
N132        C133   1.355       .  A
C133        C134   1.392       .  A
C133        H136   1.081       .  S
C134        C135   1.381       .  A
C134        C215   1.481       .  S
C135        H137   1.081       .  S
N138        N409   1.329       .  A
N138        C142   1.346       .  A
N139        N408   1.328   1_545  A
N139        C140   1.350       .  A
C140        C411   1.387   1_545  A
C140        H143   1.084       .  S
C141        C142   1.381       .  A
C141        C410   1.387       .  A
C141        C236   1.484       .  S
C142        H144   1.084       .  S
C145        C146   1.403       .  A
C145        C150   1.419       .  A
C145        C216   1.503       .  S
C146        C687   1.403       .  A
C146        H165   1.082       .  S
C147        C148   1.418       .  A
C147        C686   1.401       .  A
C147        C224   1.502       .  S
C148        C155   1.405       .  A
C148        C689   1.426       .  A
C149        C150   1.425       .  A
C149        C154   1.429       .  A
C149        C688   1.427       .  A
C150        C151   1.406       .  A
C151        C152   1.396       .  A
C151        H161   1.082       .  S
C152        C153   1.405       .  A
C152        H162   1.082       .  S
C153        C154   1.427       .  A
C153        C160   1.421       .  A
C154        C697   1.425       .  A
C155        C156   1.395       .  A
C155        H163   1.083       .  S
C156        C157   1.406       .  A
C156        H164   1.081       .  S
C157        C158   1.421       .  A
C157        C694   1.427       .  A
C158        C699   1.401       .  A
C158        C219   1.504       .  S
C159        C160   1.403       .  A
C159        C698   1.403       .  A
C159        H166   1.083       .  S
C160        C211   1.506       .  S
C167        C168   1.403       .  A
C167        C172   1.422       .  A
C167        C255   1.507       .  S
C168        C169   1.402       .  A
C168        H187   1.083       .  S
C169        C170   1.419       .  A
C169        C268   1.502       .  S
C170        C171   1.425       .  A
C170        C177   1.407       .  A
C171        C172   1.427       .  A
C171        C176   1.429       .  A
C172        C173   1.405       .  A
C173        C174   1.396       .  A
C173        H183   1.082       .  S
C174        C175   1.407       .  A
C174        H184   1.081       .  S
C175        C176   1.426       .  A
C175        C182   1.421       .  A
C176        C179   1.426       .  A
C177        C178   1.396       .  A
C177        H185   1.082       .  S
C178        C179   1.405       .  A
C178        H186   1.082       .  S
C179        C180   1.418       .  A
C180        C181   1.401       .  A
C180        C264   1.500       .  S
C181        C182   1.401       .  A
C181        H188   1.083       .  S
C182        C251   1.502       .  S
C189        C190   1.402       .  A
C189        C194   1.420       .  A
C189        C232   1.501       .  S
C190        C191   1.402       .  A
C190        H209   1.084       .  S
C191        C192   1.421       .  A
C191        C244   1.503       .  S
C192        C193   1.426       .  A
C192        C199   1.406       .  A
C193        C194   1.425       .  A
C193        C198   1.429       .  A
C194        C195   1.407       .  A
C195        C196   1.395       .  A
C195        H205   1.081       .  S
C196        C197   1.404       .  A
C196        H206   1.082       .  S
C197        C198   1.427       .  A
C197        C204   1.419       .  A
C198        C201   1.425       .  A
C199        C200   1.397       .  A
C199        H207   1.082       .  S
C200        C201   1.407       .  A
C200        H208   1.082       .  S
C201        C202   1.420       .  A
C202        C203   1.403       .  A
C202        C239   1.502       .  S
C203        C204   1.401       .  A
C203        H210   1.083       .  S
C204        C228   1.505       .  S
C211        C212   1.350       .  D
C211        H213   1.086       .  S
C212        H754   1.087       .  S
H214        C752   1.087       .  S
C215        C216   1.350       .  D
C215        H757   1.087       .  S
C216        H218   1.086       .  S
H217        C755   1.086       .  S
C219        C220   1.351       .  D
C219        H761   1.085       .  S
C220        H222   1.086   1_655  S
H221        C759   1.086       .  S
C223        C224   1.350       .  D
C223        H765   1.088       .  S
C224        H226   1.085       .  S
H225        C763   1.087       .  S
C227        C228   1.350       .  D
C227        H499   1.087       .  S
C228        H230   1.085       .  S
H229        C497   1.086       .  S
C231        C232   1.349       .  D
C231        H503   1.086       .  S
C232        H234   1.085       .  S
H233        C501   1.088       .  S
C235        C236   1.344       .  D
C235        H507   1.087       .  S
C236        H778   1.088       .  S
H237        C505   1.087       .  S
H238        C776   1.087   1_455  S
C239        C240   1.350       .  D
C239        H511   1.085       .  S
C240        H242   1.087       .  S
H241        C509   1.085       .  S
C243        C244   1.351       .  D
C243        H515   1.086       .  S
C244        H246   1.085       .  S
H245        C513   1.087       .  S
C247        C248   1.345       .  D
C247        H519   1.087       .  S
C248        H790   1.087       .  S
H249        C517   1.086       .  S
H250        C788   1.088       .  S
C251        C252   1.350       .  D
C251        H253   1.086       .  S
C252        H254   1.085       .  S
C255        C256   1.352       .  D
C255        H257   1.085       .  S
C256        H258   1.086       .  S
C259        C260   1.345   1_446  D
C259        H801   1.088   1_556  S
C260        H532   1.088       .  S
H261        C799   1.087   1_554  S
H262        C530   1.089       .  S
C263        C264   1.350       .  D
C263        H265   1.088       .  S
C264        H266   1.086       .  S
C267        C268   1.349       .  D
C267        H269   1.087       .  S
C268        H270   1.085       .  S
N271        N272   1.322       .  A
N271        C275   1.355       .  A
N271       Cu279   2.099       .  S
N272        C273   1.340       .  A
N272       Cu278   2.069   1_565  S
C273        C274   1.378       .  A
C273        H276   1.081       .  S
C274        C275   1.393       .  A
C274        C533   1.479       .  S
C275        H277   1.080       .  S
Cu278       N551   2.070       .  S
Cu279       N289   2.101       .  S
Cu280       N282   2.077       .  S
Cu280       N288   2.080       .  S
N281        N282   1.321       .  A
N281        C285   1.342       .  A
N281       Cu548   2.080   1_455  S
N282        C283   1.351       .  A
C283        C284   1.388       .  A
C283        H286   1.083       .  S
C284        C285   1.382       .  A
C284        C537   1.479       .  S
C285        H287   1.085       .  S
N288        N559   1.326   1_455  A
N288        C292   1.347       .  A
N289        N558   1.326   1_565  A
N289        C290   1.350       .  A
C290        C561   1.388   1_565  A
C290        H293   1.082       .  S
C291        C560   1.387   1_455  A
C291        C292   1.380       .  A
C291        C529   1.481       .  S
C292        H294   1.081       .  S
N295        N296   1.322       .  A
N295        C299   1.354       .  A
N295       Cu303   2.098       .  S
N296        C297   1.341       .  A
N296       Cu572   2.067       .  S
C297        C298   1.379       .  A
C297        H300   1.081       .  S
C298        C299   1.391       .  A
C298        C526   1.478       .  S
C299        H301   1.081       .  S
Cu302       N566   2.069   1_565  S
Cu302       N305   2.069       .  S
Cu303       N313   2.101       .  S
Cu304       N306   2.104       .  S
Cu304       N312   2.107       .  S
N305        N306   1.322       .  A
N305        C309   1.340       .  A
N306        C307   1.356       .  A
C307        C308   1.392       .  A
C307        H310   1.082       .  S
C308        C309   1.377       .  A
C308        C522   1.478       .  S
C309        H311   1.084       .  S
N312        N583   1.328   1_565  A
N312        C316   1.350       .  A
N313        N582   1.327   1_455  A
N313        C314   1.351       .  A
C314        C585   1.388   1_455  A
C314        H317   1.082       .  S
C315        C584   1.381   1_565  A
C315        C316   1.387       .  A
C315        C518   1.484   1_565  S
C316        H318   1.083       .  S
N319        N320   1.320   1_565  A
N319        C323   1.354       .  A
N319       Cu327   2.086       .  S
N320        C321   1.339       .  A
N320       Cu866   2.065   1_455  S
C321        C322   1.379       .  A
C321        H324   1.083       .  S
C322        C323   1.390   1_545  A
C322        C513   1.475       .  S
C323        H325   1.082       .  S
Cu326       N860   2.063       .  S
Cu326       N329   2.063       .  S
Cu327       N337   2.090       .  S
Cu328       N330   2.092   1_545  S
Cu328       N336   2.095       .  S
N329        N330   1.321       .  A
N329        C333   1.339       .  A
N330        C331   1.354       .  A
C331        C332   1.391       .  A
C331        H334   1.083   1_565  S
C332        C333   1.379       .  A
C332        C510   1.478       .  S
C333        H335   1.083       .  S
N336        N877   1.327       .  A
N336        C340   1.347       .  A
N337        N876   1.328   1_455  A
N337        C338   1.345       .  A
C338        C879   1.380   1_455  A
C338        H341   1.084       .  S
C339        C878   1.386       .  A
C339        C340   1.383       .  A
C339        C505   1.483       .  S
C340        H342   1.083       .  S
N343        N344   1.322       .  A
N343        C347   1.356       .  A
N343       Cu351   2.099       .  S
N344        C345   1.340       .  A
N344       Cu890   2.074       .  S
C345        C346   1.380       .  A
C345        H348   1.083       .  S
C346        C347   1.392       .  A
C346        C501   1.481       .  S
C347        H349   1.082       .  S
Cu350       N884   2.073       .  S
Cu350       N353   2.073       .  S
Cu351       N361   2.102       .  S
Cu352       N354   2.092       .  S
Cu352       N360   2.095       .  S
N353        N354   1.321       .  A
N353        C357   1.342       .  A
N354        C355   1.354       .  A
C355        C356   1.391       .  A
C355        H358   1.081       .  S
C356        C357   1.381       .  A
C356        C497   1.481       .  S
C357        H359   1.081       .  S
N360        N901   1.327       .  A
N360        C364   1.347   1_545  A
N361        N900   1.327   1_455  A
N361        C362   1.349       .  A
C362        C903   1.387   1_445  A
C362        H365   1.083   1_545  S
C363        C902   1.387       .  A
C363        C364   1.383       .  A
C363        C517   1.485       .  S
C364        H366   1.083       .  S
N367        N368   1.321       .  A
N367        C371   1.355       .  A
N367       Cu375   2.096       .  S
N368        C369   1.341       .  A
C369        C370   1.380       .  A
C369        H372   1.084       .  S
C370        C371   1.392       .  A
C370        C493   1.482       .  S
C371        H373   1.083       .  S
Cu374       N377   2.076       .  S
Cu375       N385   2.099       .  S
Cu376       N378   2.094       .  S
Cu376       N384   2.095       .  S
N377        N378   1.322       .  A
N377        C381   1.343       .  A
N378        C379   1.352       .  A
C379        C380   1.388       .  A
C379        H382   1.082       .  S
C380        C381   1.381       .  A
C380        C490   1.474       .  S
C381        H383   1.082       .  S
N384        C388   1.350   1_655  A
N385        C386   1.347       .  A
C386        H389   1.083       .  S
C387        C388   1.387   1_655  A
C387        C530   1.478       .  S
C388        H390   1.083       .  S
N391        N392   1.321       .  A
N391        C395   1.359       .  A
N391       Cu399   2.110       .  S
N392        C393   1.339       .  A
C393        C394   1.379       .  A
C393        H396   1.084       .  S
C394        C395   1.396       .  A
C394        C482   1.486       .  S
C395        H397   1.083       .  S
Cu398       N401   2.072   1_545  S
Cu399       N409   2.113       .  S
Cu400       N402   2.084       .  S
Cu400       N408   2.088       .  S
N401        N402   1.320       .  A
N401        C405   1.341       .  A
N402        C403   1.354       .  A
C403        C404   1.391       .  A
C403        H406   1.081       .  S
C404        C405   1.382       .  A
C404        C485   1.480       .  S
C405        H407   1.081       .  S
N408        C412   1.345       .  A
N409        C410   1.350       .  A
C410        H413   1.084       .  S
C411        C412   1.380       .  A
C411        C506   1.481       .  S
C412        H414   1.084       .  S
C415        C416   1.402       .  A
C415        C420   1.420       .  A
C415        C486   1.503       .  S
C416        C957   1.402       .  A
C416        H435   1.082       .  S
C417        C956   1.403       .  A
C417        C418   1.419       .  A
C417        C494   1.504       .  S
C418        C959   1.426       .  A
C418        C425   1.406       .  A
C419        C958   1.428       .  A
C419        C420   1.425       .  A
C419        C424   1.430       .  A
C420        C421   1.407       .  A
C421        C422   1.397       .  A
C421        H431   1.081       .  S
C422        C423   1.405       .  A
C422        H432   1.082       .  S
C423        C424   1.428       .  A
C423        C430   1.422       .  A
C424        C967   1.426       .  A
C425        C426   1.394       .  A
C425        H433   1.082       .  S
C426        C427   1.405       .  A
C426        H434   1.081       .  S
C427        C964   1.426       .  A
C427        C428   1.419       .  A
C428        C969   1.399       .  A
C428        C489   1.501       .  S
C429        C968   1.403       .  A
C429        C430   1.403       .  A
C429        H436   1.083       .  S
C430        C481   1.510       .  S
C437        C438   1.401       .  A
C437        C442   1.418       .  A
C437        C525   1.501       .  S
C438        C439   1.400       .  A
C438        H457   1.083       .  S
C439        C440   1.418       .  A
C439        C538   1.500       .  S
C440        C441   1.426       .  A
C440        C447   1.405       .  A
C441        C442   1.425       .  A
C441        C446   1.426       .  A
C442        C443   1.406       .  A
C443        C444   1.395       .  A
C443        H453   1.080       .  S
C444        C445   1.405       .  A
C444        H454   1.083       .  S
C445        C446   1.426       .  A
C445        C452   1.419       .  A
C446        C449   1.424       .  A
C447        C448   1.394       .  A
C447        H455   1.083       .  S
C448        C449   1.406       .  A
C448        H456   1.080       .  S
C449        C450   1.416       .  A
C450        C451   1.403       .  A
C450        C534   1.498       .  S
C451        C452   1.403       .  A
C451        H458   1.084       .  S
C452        C521   1.503       .  S
C459        C460   1.399   1_545  A
C459        C464   1.418       .  A
C459        C502   1.502       .  S
C460        C461   1.401       .  A
C460        H479   1.084       .  S
C461        C462   1.418   1_565  A
C461        C514   1.501       .  S
C462        C463   1.426       .  A
C462        C469   1.405   1_545  A
C463        C464   1.427       .  A
C463        C468   1.426       .  A
C464        C465   1.404       .  A
C465        C466   1.395       .  A
C465        H475   1.082       .  S
C466        C467   1.406       .  A
C466        H476   1.082       .  S
C467        C468   1.426       .  A
C467        C474   1.419       .  A
C468        C471   1.425       .  A
C469        C470   1.395       .  A
C469        H477   1.081       .  S
C470        C471   1.406   1_565  A
C470        H478   1.082       .  S
C471        C472   1.417       .  A
C472        C473   1.402       .  A
C472        C509   1.500       .  S
C473        C474   1.402       .  A
C473        H480   1.083       .  S
C474        C498   1.502       .  S
C481        C482   1.352       .  D
C481        H483   1.085       .  S
C482       H1024   1.088       .  S
H484       C1022   1.087       .  S
C485        C486   1.350       .  D
C485       H1027   1.087       .  S
C486        H488   1.085       .  S
H487       C1025   1.087       .  S
C489        C490   1.350       .  D
C489       H1031   1.085       .  S
C490        H492   1.086   1_655  S
H491       C1029   1.085       .  S
C493        C494   1.349       .  D
C493       H1035   1.086       .  S
C494        H496   1.085       .  S
H495       C1033   1.086       .  S
C497        C498   1.349       .  D
C498        H500   1.085       .  S
C501        C502   1.350       .  D
C502        H504   1.086   1_545  S
C505        C506   1.344   1_545  D
C506       H1048   1.087       .  S
H508       C1046   1.087   1_545  S
C509        C510   1.348   1_545  D
C510        H512   1.088       .  S
C513        C514   1.349   1_545  D
C514        H516   1.085       .  S
C517        C518   1.345   1_565  D
C518       H1060   1.085       .  S
H520       C1058   1.087       .  S
C521        C522   1.349       .  D
C521        H523   1.086       .  S
C522        H524   1.086       .  S
C525        C526   1.349       .  D
C525        H527   1.086       .  S
C526        H528   1.086       .  S
C529        C530   1.341   1_456  D
C529       H1071   1.087   1_556  S
H531       C1069   1.088   1_554  S
C533        C534   1.346       .  D
C533        H535   1.088       .  S
C534        H536   1.086       .  S
C537        C538   1.349       .  D
C537        H539   1.086       .  S
C538        H540   1.085       .  S
N541        N542   1.322       .  A
N541        C545   1.357       .  A
N541       Cu549   2.100       .  S
N542        C543   1.341       .  A
N542       Cu548   2.080       .  S
C543        C544   1.382       .  A
C543        H546   1.081       .  S
C544        C545   1.394       .  A
C544        C803   1.486       .  S
C545        H547   1.080       .  S
Cu549       N559   2.102       .  S
Cu550       N552   2.074       .  S
Cu550       N558   2.077       .  S
N551        N552   1.320       .  A
N551        C555   1.341       .  A
N552        C553   1.349       .  A
C553        C554   1.387       .  A
C553        H556   1.084       .  S
C554        C555   1.382       .  A
C554        C807   1.476       .  S
C555        H557   1.084       .  S
N558        C562   1.344       .  A
N559        C560   1.347       .  A
C560        H563   1.082       .  S
C561        C562   1.379       .  A
C561        C799   1.479       .  S
C562        H564   1.082       .  S
N565        N566   1.320       .  A
N565        C569   1.355       .  A
N565       Cu573   2.091       .  S
N566        C567   1.341       .  A
C567        C568   1.381       .  A
C567        H570   1.081       .  S
C568        C569   1.391       .  A
C568        C796   1.480       .  S
C569        H571   1.081       .  S
Cu572       N575   2.067   1_455  S
Cu573       N583   2.095       .  S
Cu574       N576   2.094       .  S
Cu574       N582   2.096       .  S
N575        N576   1.321       .  A
N575        C579   1.342       .  A
N576        C577   1.352       .  A
C577        C578   1.389       .  A
C577        H580   1.082       .  S
C578        C579   1.380       .  A
C578        C792   1.474       .  S
C579        H581   1.083       .  S
N582        C586   1.346       .  A
N583        C584   1.346       .  A
C584        H587   1.083       .  S
C585        C586   1.382       .  A
C585        C788   1.485       .  S
C586        H588   1.082       .  S
N589        N590   1.322       .  A
N589        C593   1.354       .  A
N589       Cu597   2.098       .  S
N590        C591   1.343       .  A
C591        C592   1.381       .  A
C591        H594   1.082       .  S
C592        C593   1.389       .  A
C592        C783   1.477       .  S
C593        H595   1.082       .  S
Cu596       N599   2.075       .  S
Cu597       N607   2.100       .  S
Cu598       N600   2.100       .  S
Cu598       N606   2.102       .  S
N599        N600   1.322       .  A
N599        C603   1.341       .  A
N600        C601   1.355       .  A
C601        C602   1.392       .  A
C601        H604   1.082       .  S
C602        C603   1.380       .  A
C602        C780   1.483       .  S
C603        H605   1.083       .  S
N606        C610   1.350       .  A
N607        C608   1.349       .  A
C608        H611   1.083       .  S
C609        C610   1.385       .  A
C609        C775   1.486       .  S
C610        H612   1.083       .  S
N613        N614   1.321       .  A
N613        C617   1.354       .  A
N613       Cu621   2.089       .  S
N614        C615   1.342       .  A
C615        C616   1.384       .  A
C615        H618   1.083       .  S
C616        C617   1.390       .  A
C616        C771   1.484       .  S
C617        H619   1.083       .  S
Cu620       N623   2.072   1_455  S
Cu621       N631   2.092       .  S
Cu622       N624   2.107       .  S
Cu622       N630   2.110   1_655  S
N623        N624   1.322       .  A
N623        C627   1.340       .  A
N624        C625   1.358       .  A
C625        C626   1.394       .  A
C625        H628   1.081       .  S
C626        C627   1.380       .  A
C626        C767   1.485       .  S
C627        H629   1.081       .  S
N630        C634   1.350   1_455  A
N631        C632   1.346       .  A
C632        H635   1.083       .  S
C633        C634   1.388   1_455  A
C633        C787   1.488       .  S
C634        H636   1.083       .  S
N637        N638   1.321       .  A
N637        C641   1.355       .  A
N637       Cu645   2.096       .  S
N638        C639   1.341       .  A
N638       Cu914   2.074       .  S
C639        C640   1.381       .  A
C639        H642   1.083       .  S
C640        C641   1.391       .  A
C640        C763   1.483       .  S
C641        H643   1.083       .  S
Cu644       N908   2.080       .  S
Cu644       N647   2.079   1_565  S
Cu645       N655   2.098       .  S
Cu646       N648   2.091       .  S
Cu646       N654   2.093   1_545  S
N647        N648   1.322       .  A
N647        C651   1.343       .  A
N648        C649   1.353       .  A
C649        C650   1.389       .  A
C649        H652   1.082       .  S
C650        C651   1.382       .  A
C650        C760   1.477       .  S
C651        H653   1.082       .  S
N654        N925   1.326       .  A
N654        C658   1.347   1_565  A
N655        N924   1.327       .  A
N655        C656   1.347       .  A
C656        C927   1.383       .  A
C656        H659   1.084       .  S
C657        C926   1.382       .  A
C657        C658   1.386   1_565  A
C657        C800   1.481       .  S
C658        H660   1.083       .  S
N661        N662   1.322       .  A
N661        C665   1.354       .  A
N661       Cu669   2.091   1_455  S
N662        C663   1.343       .  A
N662       Cu938   2.085       .  S
C663        C664   1.384       .  A
C663        H666   1.083       .  S
C664        C665   1.390       .  A
C664        C752   1.485       .  S
C665        H667   1.083   1_455  S
Cu668       N932   2.080       .  S
Cu668       N671   2.080       .  S
Cu669       N679   2.092       .  S
Cu670       N672   2.086       .  S
Cu670       N678   2.090   1_455  S
N671        N672   1.320       .  A
N671        C675   1.344       .  A
N672        C673   1.353       .  A
C673        C674   1.390       .  A
C673        H676   1.081       .  S
C674        C675   1.385       .  A
C674        C755   1.485       .  S
C675        H677   1.081       .  S
N678        N949   1.326       .  A
N678        C682   1.345   1_655  A
N679        N948   1.327   1_545  A
N679        C680   1.346       .  A
C680        C951   1.381   1_545  A
C680        H683   1.083       .  S
C681        C950   1.388       .  A
C681        C682   1.381   1_655  A
C681        C776   1.483       .  S
C682        H684   1.084       .  S
C685        C686   1.402       .  A
C685        C690   1.423       .  A
C685        C756   1.506   1_655  S
C686        H705   1.082       .  S
C687        C688   1.422       .  A
C687        C764   1.507       .  S
C688        C695   1.406       .  A
C689        C690   1.427       .  A
C689        C694   1.430       .  A
C690        C691   1.407   1_655  A
C691        C692   1.398       .  A
C691        H701   1.081       .  S
C692        C693   1.406   1_455  A
C692        H702   1.082       .  S
C693        C694   1.427       .  A
C693        C700   1.423       .  A
C695        C696   1.396       .  A
C695        H703   1.081       .  S
C696        C697   1.407       .  A
C696        H704   1.081       .  S
C697        C698   1.421       .  A
C698        C759   1.503       .  S
C699        C700   1.402       .  A
C699        H706   1.084       .  S
C700        C751   1.506       .  S
C707        C708   1.400       .  A
C707        C712   1.420       .  A
C707        C795   1.506       .  S
C708        C709   1.401       .  A
C708        H727   1.082       .  S
C709        C710   1.417       .  A
C709        C808   1.497       .  S
C710        C711   1.424       .  A
C710        C717   1.407       .  A
C711        C712   1.428       .  A
C711        C716   1.428       .  A
C712        C713   1.404       .  A
C713        C714   1.395       .  A
C713        H723   1.082       .  S
C714        C715   1.408       .  A
C714        H724   1.081       .  S
C715        C716   1.424       .  A
C715        C722   1.419       .  A
C716        C719   1.427       .  A
C717        C718   1.396       .  A
C717        H725   1.082       .  S
C718        C719   1.405       .  A
C718        H726   1.082       .  S
C719        C720   1.421       .  A
C720        C721   1.403       .  A
C720        C804   1.506       .  S
C721        C722   1.403       .  A
C721        H728   1.083       .  S
C722        C791   1.502       .  S
C729        C730   1.402       .  A
C729        C734   1.423       .  A
C729        C772   1.506       .  S
C730        C731   1.400       .  A
C730        H749   1.083       .  S
C731        C732   1.419       .  A
C731        C784   1.504       .  S
C732        C733   1.427       .  A
C732        C739   1.405       .  A
C733        C734   1.427       .  A
C733        C738   1.430       .  A
C734        C735   1.407       .  A
C735        C736   1.399       .  A
C735        H745   1.082       .  S
C736        C737   1.406       .  A
C736        H746   1.082       .  S
C737        C738   1.427       .  A
C737        C744   1.421       .  A
C738        C741   1.427       .  A
C739        C740   1.394       .  A
C739        H747   1.081       .  S
C740        C741   1.406       .  A
C740        H748   1.081       .  S
C741        C742   1.421       .  A
C742        C743   1.403       .  A
C742        C779   1.507       .  S
C743        C744   1.404       .  A
C743        H750   1.082       .  S
C744        C768   1.506       .  S
C751        C752   1.353   1_655  D
C751        H753   1.084       .  S
C755        C756   1.354       .  D
C756        H758   1.086   1_455  S
C759        C760   1.350       .  D
C760        H762   1.086       .  S
C763        C764   1.352       .  D
C764        H766   1.085       .  S
C767        C768   1.351       .  D
C767       H1039   1.088       .  S
C768        H770   1.085       .  S
H769       C1037   1.086       .  S
C771        C772   1.354       .  D
C771       H1043   1.087       .  S
C772        H774   1.085       .  S
H773       C1041   1.088       .  S
C775        C776   1.346       .  D
C775       H1047   1.087       .  S
H777       C1045   1.087   1_455  S
C779        C780   1.350       .  D
C779       H1051   1.086       .  S
C780        H782   1.086       .  S
H781       C1049   1.085       .  S
C783        C784   1.351       .  D
C783       H1055   1.086       .  S
C784        H786   1.086       .  S
H785       C1053   1.085       .  S
C787        C788   1.346   1_455  D
C787       H1059   1.087       .  S
H789       C1057   1.088       .  S
C791        C792   1.348       .  D
C791        H793   1.086       .  S
C792        H794   1.086       .  S
C795        C796   1.351       .  D
C795        H797   1.086       .  S
C796        H798   1.086       .  S
C799        C800   1.342   1_546  D
C800       H1072   1.088   1_554  S
H802       C1070   1.088   1_556  S
C803        C804   1.351       .  D
C803        H805   1.088       .  S
C804        H806   1.085       .  S
C807        C808   1.349       .  D
C807        H809   1.086       .  S
C808        H810   1.085       .  S
N811        N812   1.322       .  A
N811        C815   1.355       .  A
N811       Cu819   2.101       .  S
N812        C813   1.341       .  A
N812       Cu818   2.071   1_565  S
C813        C814   1.380       .  A
C813        H816   1.081       .  S
C814        C815   1.392       .  A
C814       C1073   1.482       .  S
C815        H817   1.081       .  S
Cu819       N829   2.104       .  S
Cu820       N822   2.100       .  S
Cu820       N828   2.103       .  S
N821        N822   1.322       .  A
N821        C825   1.341       .  A
N822        C823   1.356       .  A
C823        C824   1.392       .  A
C823        H826   1.084       .  S
C824        C825   1.381       .  A
C824       C1077   1.484       .  S
C825        H827   1.084       .  S
N828        C832   1.348       .  A
N829        C830   1.351       .  A
C830        H833   1.082       .  S
C831        C832   1.385       .  A
C831       C1069   1.486       .  S
C832        H834   1.082       .  S
N835        N836   1.322       .  A
N835        C839   1.355       .  A
N835       Cu843   2.098       .  S
N836        C837   1.341       .  A
C837        C838   1.380       .  A
C837        H840   1.081       .  S
C838        C839   1.391       .  A
C838       C1066   1.480       .  S
C839        H841   1.081       .  S
Cu842       N845   2.079   1_455  S
Cu843       N853   2.100       .  S
Cu844       N846   2.097       .  S
Cu844       N852   2.099       .  S
N845        N846   1.323       .  A
N845        C849   1.342       .  A
N846        C847   1.353       .  A
C847        C848   1.389       .  A
C847        H850   1.083       .  S
C848        C849   1.380       .  A
C848       C1062   1.476       .  S
C849        H851   1.083       .  S
N852        C856   1.351       .  A
N853        C854   1.349       .  A
C854        H857   1.082       .  S
C855        C856   1.388   1_445  A
C855       C1058   1.485       .  S
C856        H858   1.083       .  S
N859        N860   1.321       .  A
N859        C863   1.352       .  A
N859       Cu867   2.089       .  S
N860        C861   1.341       .  A
C861        C862   1.378       .  A
C861        H864   1.082       .  S
C862        C863   1.389       .  A
C862       C1053   1.473   1_565  S
C863        H865   1.082   1_565  S
Cu866       N869   2.065   1_545  S
Cu867       N877   2.092   1_565  S
Cu868       N870   2.102       .  S
Cu868       N876   2.106       .  S
N869        N870   1.321       .  A
N869        C873   1.339       .  A
N870        C871   1.357       .  A
C871        C872   1.392       .  A
C871        H874   1.082       .  S
C872        C873   1.378       .  A
C872       C1050   1.479       .  S
C873        H875   1.083       .  S
N876        C880   1.350       .  A
N877        C878   1.347       .  A
C878        H881   1.083   1_545  S
C879        C880   1.388       .  A
C879       C1045   1.482       .  S
C880        H882   1.083       .  S
N883        N884   1.321       .  A
N883        C887   1.356       .  A
N883       Cu891   2.101       .  S
N884        C885   1.341       .  A
C885        C886   1.381       .  A
C885        H888   1.083       .  S
C886        C887   1.393       .  A
C886       C1041   1.485       .  S
C887        H889   1.083       .  S
Cu890       N893   2.074   1_455  S
Cu891       N901   2.104       .  S
Cu892       N894   2.094       .  S
Cu892       N900   2.097       .  S
N893        N894   1.321       .  A
N893        C897   1.342       .  A
N894        C895   1.354       .  A
C895        C896   1.390       .  A
C895        H898   1.081       .  S
C896        C897   1.382       .  A
C896       C1037   1.481       .  S
C897        H899   1.081       .  S
N900        C904   1.348   1_545  A
N901        C902   1.349   1_545  A
C902        H905   1.083       .  S
C903        C904   1.383       .  A
C903       C1057   1.486       .  S
C904        H906   1.083       .  S
N907        N908   1.322       .  A
N907        C911   1.354       .  A
N907       Cu915   2.091       .  S
N908        C909   1.342       .  A
C909        C910   1.382       .  A
C909        H912   1.083       .  S
C910        C911   1.390       .  A
C910       C1033   1.483       .  S
C911        H913   1.083       .  S
Cu914       N917   2.074       .  S
Cu915       N925   2.093       .  S
Cu916       N918   2.100       .  S
Cu916       N924   2.101       .  S
N917        N918   1.322       .  A
N917        C921   1.342       .  A
N918        C919   1.354       .  A
C919        C920   1.390       .  A
C919        H922   1.082       .  S
C920        C921   1.381       .  A
C920       C1030   1.477       .  S
C921        H923   1.082       .  S
N924        C928   1.350       .  A
N925        C926   1.347       .  A
C926        H929   1.083       .  S
C927        C928   1.387       .  A
C927       C1070   1.485       .  S
C928        H930   1.083       .  S
N931        N932   1.323       .  A
N931        C935   1.355       .  A
N931       Cu939   2.099   1_455  S
N932        C933   1.341       .  A
C933        C934   1.381       .  A
C933        H936   1.084       .  S
C934        C935   1.391       .  A
C934       C1022   1.483       .  S
C935        H937   1.083   1_455  S
Cu938       N941   2.085   1_545  S
Cu939       N949   2.101       .  S
Cu940       N942   2.098       .  S
Cu940       N948   2.100   1_455  S
N941        N942   1.322       .  A
N941        C945   1.343       .  A
N942        C943   1.356       .  A
C943        C944   1.392       .  A
C943        H946   1.081       .  S
C944        C945   1.383       .  A
C944       C1025   1.486       .  S
C945        H947   1.081       .  S
N948        C952   1.349       .  A
N949        C950   1.351       .  A
C950        H953   1.084       .  S
C951        C952   1.387       .  A
C951       C1046   1.483       .  S
C952        H954   1.083       .  S
C955        C956   1.404       .  A
C955        C960   1.422       .  A
C955       C1026   1.507   1_655  S
C956        H975   1.083       .  S
C957        C958   1.421       .  A
C957       C1034   1.507       .  S
C958        C965   1.405       .  A
C959        C960   1.427       .  A
C959        C964   1.429       .  A
C960        C961   1.407       .  A
C961        C962   1.398       .  A
C961        H971   1.082   1_655  S
C962        C963   1.406       .  A
C962        H972   1.082   1_655  S
C963        C964   1.426       .  A
C963        C970   1.421       .  A
C965        C966   1.396       .  A
C965        H973   1.082       .  S
C966        C967   1.407       .  A
C966        H974   1.081       .  S
C967        C968   1.420       .  A
C968       C1029   1.505       .  S
C969        C970   1.401       .  A
C969        H976   1.084       .  S
C970       C1021   1.503       .  S
C977        C978   1.402       .  A
C977        C982   1.419       .  A
C977       C1065   1.503       .  S
C978        C979   1.402       .  A
C978        H997   1.083       .  S
C979        C980   1.421       .  A
C979       C1078   1.506       .  S
C980        C981   1.427       .  A
C980        C987   1.405       .  A
C981        C982   1.426       .  A
C981        C986   1.429       .  A
C982        C983   1.406       .  A
C983        C984   1.395       .  A
C983        H993   1.080       .  S
C984        C985   1.406       .  A
C984        H994   1.083       .  S
C985        C986   1.426       .  A
C985        C992   1.420       .  A
C986        C989   1.426       .  A
C987        C988   1.396       .  A
C987        H995   1.083       .  S
C988        C989   1.407       .  A
C988        H996   1.080       .  S
C989        C990   1.420       .  A
C990        C991   1.402       .  A
C990       C1074   1.503       .  S
C991        C992   1.402       .  A
C991        H998   1.083       .  S
C992       C1061   1.502       .  S
C999       C1000   1.402       .  A
C999       C1004   1.421       .  A
C999       C1042   1.505       .  S
C1000      C1001   1.403   1_545  A
C1000      H1019   1.083   1_545  S
C1001      C1002   1.418   1_565  A
C1001      C1054   1.500       .  S
C1002      C1003   1.424       .  A
C1002      C1009   1.407   1_545  A
C1003      C1004   1.427       .  A
C1003      C1008   1.428       .  A
C1004      C1005   1.406       .  A
C1005      C1006   1.397       .  A
C1005      H1015   1.082       .  S
C1006      C1007   1.407       .  A
C1006      H1016   1.082       .  S
C1007      C1008   1.425       .  A
C1007      C1014   1.420       .  A
C1008      C1011   1.427       .  A
C1009      C1010   1.394       .  A
C1009      H1017   1.080       .  S
C1010      C1011   1.404   1_565  A
C1010      H1018   1.082       .  S
C1011      C1012   1.418       .  A
C1012      C1013   1.402       .  A
C1012      C1049   1.505       .  S
C1013      C1014   1.402       .  A
C1013      H1020   1.082       .  S
C1014      C1038   1.503       .  S
C1021      C1022   1.351   1_655  D
C1021      H1023   1.086       .  S
C1025      C1026   1.353       .  D
C1026      H1028   1.085   1_455  S
C1029      C1030   1.351       .  D
C1030      H1032   1.086       .  S
C1033      C1034   1.353       .  D
C1034      H1036   1.085       .  S
C1037      C1038   1.351       .  D
C1038      H1040   1.085       .  S
C1041      C1042   1.351       .  D
C1042      H1044   1.085       .  S
C1045      C1046   1.344       .  D
C1049      C1050   1.349   1_545  D
C1050      H1052   1.087       .  S
C1053      C1054   1.347   1_545  D
C1054      H1056   1.085       .  S
C1057      C1058   1.345   1_665  D
C1061      C1062   1.350       .  D
C1061      H1063   1.086       .  S
C1062      H1064   1.087       .  S
C1065      C1066   1.349       .  D
C1065      H1067   1.085       .  S
C1066      H1068   1.086       .  S
C1069      C1070   1.346   1_556  D
C1073      C1074   1.350       .  D
C1073      H1075   1.087       .  S
C1074      H1076   1.086       .  S
C1077      C1078   1.352       .  D
C1077      H1079   1.087       .  S
C1078      H1080   1.085       .  S
