geometry optimzed in LAMMPS
_audit_creation_date              2020-12-01 
_audit_creation_method            'lammps2cif' 
_symmetry_space_group_name_H-M    'P1' 
_symmetry_Int_Tables_number       1 
_symmetry_cell_setting            triclinic 
loop_ 
_symmetry_equiv_pos_as_xyz 
  x,y,z 
_cell_length_a                    38.87179737 
_cell_length_b                    38.53165764277207 
_cell_length_c                    38.75033268328473 
_cell_angle_alpha                 89.98604520971651 
_cell_angle_beta                  89.97615769279577 
_cell_angle_gamma                 89.83778214202661 
loop_ 
_atom_site_label 
_atom_site_type_symbol 
_atom_site_fract_x 
_atom_site_fract_y 
_atom_site_fract_z 
_atom_site_charge 
C1          C  0.11018853  0.10708418  0.11228518    -0.01600
C2          C  0.92532191  0.10814620  0.92825669    -0.01600
C3          C  0.93006049  0.92514805  0.11177656    -0.01600
C4          C  0.11148648  0.93588531  0.92380136    -0.01600
C5          C  0.01793203  0.01900596  0.02012421    -0.01600
N6          N  0.85822948  0.74927533  0.50155561    -0.26400
N7          N  0.86186274  0.78125235  0.48989362    -0.34300
C8          C  0.89519138  0.78977966  0.48928228     0.01900
C9          C  0.91390038  0.76176506  0.50073644     0.07900
C10         C  0.88982884  0.73620985  0.50816565    -0.05200
H11         H  0.90491787  0.81509406  0.48229055     0.08600
H12         H  0.89477599  0.71090261  0.51924578     0.09800
Cu13       Cu  0.82238787  0.81491286  0.48114270     0.44200
Cu14       Cu  0.80931037  0.72910132  0.51164984     0.42000
Cu15       Cu  0.74128828  0.79857630  0.51651575     0.43900
N16         N  0.78795032  0.85371929  0.49020757    -0.33800
N17         N  0.75748029  0.84876384  0.50434254    -0.28100
C18         C  0.74358640  0.88005959  0.51172604    -0.04200
C19         C  0.76711593  0.90540634  0.50219256     0.08000
C20         C  0.79475541  0.88769741  0.48864682     0.01800
H21         H  0.71945523  0.88396197  0.52512170     0.09500
H22         H  0.81895001  0.89855271  0.48014611     0.08600
N23         N  0.73358787  0.74557685  0.52526190    -0.35300
N24         N  0.75720989  0.72077343  0.52276651    -0.27500
C25         C  0.74266322  0.69015192  0.53116288    -0.02700
C26         C  0.70845179  0.69594635  0.53927322     0.05900
C27         C  0.70376363  0.73132226  0.53561015     0.04000
H28         H  0.75645376  0.66580244  0.53313418     0.09100
H29         H  0.68060468  0.74586838  0.54133298     0.07900
N30         N  0.50269333  0.85820769  0.75282810    -0.26400
N31         N  0.49188790  0.86260536  0.78479304    -0.34300
C32         C  0.49138265  0.89643504  0.79267670     0.01900
C33         C  0.50215060  0.91483521  0.76423870     0.07900
C34         C  0.50898365  0.88986279  0.73909930    -0.05200
H35         H  0.48496073  0.90675029  0.81784483     0.08600
H36         H  0.51929946  0.89428958  0.71354875     0.09800
Cu37       Cu  0.48450873  0.82270216  0.81842695     0.44200
Cu38       Cu  0.51091984  0.80753765  0.73434131     0.42000
Cu39       Cu  0.51496337  0.73713559  0.80281314     0.43900
N40         N  0.49339592  0.78826318  0.85730297    -0.33800
N41         N  0.50547108  0.75645565  0.85319869    -0.28100
C42         C  0.51141164  0.74298815  0.88499584    -0.04200
C43         C  0.50303224  0.76810853  0.90961949     0.08000
C44         C  0.49178735  0.79621142  0.89087887     0.01800
H45         H  0.52229275  0.71757584  0.88981874     0.09500
H46         H  0.48399832  0.82125048  0.90085439     0.08600
N47         N  0.52051649  0.72927841  0.74883521    -0.35300
N48         N  0.51828431  0.75412698  0.72521943    -0.27500
C49         C  0.52352116  0.74011808  0.69381048    -0.02700
C50         C  0.52990580  0.70472086  0.69713295     0.05900
C51         C  0.52758353  0.69897359  0.73260717     0.04000
H52         H  0.52316208  0.75515916  0.67029633     0.09100
H53         H  0.53225190  0.67473230  0.74590334     0.07900
N54         N  0.53636123  0.85593696  0.28219362    -0.26400
N55         N  0.54615317  0.86106538  0.24996129    -0.34300
C56         C  0.54646481  0.89506353  0.24303839     0.01900
C57         C  0.53643187  0.91271987  0.27220280     0.07900
C58         C  0.53044497  0.88722758  0.29690493    -0.05200
H59         H  0.55139535  0.90597437  0.21778947     0.08600
H60         H  0.52025827  0.89100286  0.32261592     0.09800
Cu61       Cu  0.55009145  0.82322474  0.21330716     0.44200
Cu62       Cu  0.52661053  0.80563591  0.30026286     0.42000
Cu63       Cu  0.51402532  0.74120940  0.22836761     0.43900
N64         N  0.53660760  0.79116740  0.17358484    -0.33800
N65         N  0.52279583  0.76023621  0.17808064    -0.28100
C66         C  0.51476421  0.74722088  0.14667659    -0.04200
C67         C  0.52345148  0.77174588  0.12174431     0.08000
C68         C  0.53713600  0.79914888  0.13990230     0.01800
H69         H  0.50242192  0.72245714  0.14236908     0.09500
H70         H  0.54630197  0.82346407  0.12947792     0.08600
N71         N  0.50894983  0.73063566  0.28162566    -0.35300
N72         N  0.51449517  0.75303077  0.30703386    -0.27500
C73         C  0.50775786  0.73734097  0.33745576    -0.02700
C74         C  0.49737682  0.70359333  0.33113004     0.05900
C75         C  0.49811027  0.70046898  0.29546640     0.04000
H76         H  0.50807420  0.75029728  0.36221559     0.09100
H77         H  0.48984262  0.67826902  0.28058010     0.07900
N78         N  0.85947365  0.53544202  0.28274854    -0.26400
N79         N  0.86410082  0.54800805  0.25140288    -0.34300
C80         C  0.89773735  0.54935771  0.24415254     0.01900
C81         C  0.91567876  0.53726027  0.27229169     0.07900
C82         C  0.89072318  0.52884678  0.29665248    -0.05200
H83         H  0.90821811  0.55644143  0.21926645     0.08600
H84         H  0.89487557  0.51650177  0.32138661     0.09800
Cu85       Cu  0.82566272  0.55445845  0.21621457     0.44200
Cu86       Cu  0.80976454  0.52321885  0.30009057     0.42000
Cu87       Cu  0.74277968  0.51867532  0.23057995     0.43900
N88         N  0.79269819  0.54310407  0.17690627    -0.33800
N89         N  0.76181281  0.52958486  0.18119155    -0.28100
C90         C  0.74865804  0.52232659  0.14977636    -0.04200
C91         C  0.77298767  0.53125404  0.12505694     0.08000
C92         C  0.80045422  0.54425315  0.14324458     0.01800
H93         H  0.72405547  0.51003200  0.14534344     0.09500
H94         H  0.82478336  0.55297577  0.13290147     0.08600
N95         N  0.73395058  0.50878813  0.28305265    -0.35300
N96         N  0.75770288  0.51053497  0.30753932    -0.27500
C97         C  0.74344218  0.50090437  0.33771826    -0.02700
C98         C  0.70914808  0.49247768  0.33228451     0.05900
C99         C  0.70412059  0.49799080  0.29724676     0.04000
H100        H  0.75737630  0.49941621  0.36182037     0.09100
H101        H  0.68090366  0.49289954  0.28273419     0.07900
O102        O  0.50717973  0.79683170  0.96367785    -0.72100
O103        O  0.51666072  0.79912883  0.06714153    -0.73100
O104        O  0.56370808  0.80035384  0.01108627    -0.61700
O105        O  0.45986978  0.79738584  0.01978043    -0.70100
O106        O  0.46190954  0.73982257  0.02077689    -0.69700
O107        O  0.56472952  0.74276679  0.01184847    -0.60900
O108        O  0.51737568  0.74153724  0.06826378    -0.73400
O109        O  0.50941176  0.73928193  0.96410562    -0.72200
Cu110      Cu  0.51175000  0.80045095  0.01535656     1.04600
Cu111      Cu  0.51340588  0.73887416  0.01627012     1.04300
C112        C  0.50690361  0.76783097  0.94754407     0.94100
C113        C  0.51868000  0.77062316  0.08399608     0.93200
C114        C  0.58049075  0.77183219  0.01012904     0.85400
C115        C  0.44464932  0.76811522  0.02189350     0.91700
O116        O  0.79815251  0.57171224  0.01373083    -0.72100
O117        O  0.80078559  0.46719466  0.02454763    -0.73100
O118        O  0.79709600  0.51340510  0.96773398    -0.61700
O119        O  0.79998044  0.52535752  0.07050247    -0.70100
O120        O  0.74289644  0.52362686  0.07221309    -0.69700
O121        O  0.73998207  0.51301574  0.96901539    -0.60900
O122        O  0.74370257  0.46674434  0.02626582    -0.73400
O123        O  0.74108780  0.57014048  0.01506592    -0.72200
Cu124      Cu  0.80103173  0.51946855  0.01903716     1.04600
Cu125      Cu  0.73995293  0.51835387  0.02068643     1.04300
C126        C  0.76912534  0.58730171  0.01276260     0.94100
C127        C  0.77251065  0.45063279  0.02729123     0.93200
C128        C  0.76814307  0.51115307  0.95220655     0.85400
C129        C  0.77180011  0.52636877  0.08753116     0.91700
N130        N  0.67435099  0.78346449  0.00920065    -0.26400
N131        N  0.67064051  0.75076638  0.99978176    -0.34300
C132        C  0.63726101  0.74262888  0.99812901     0.01900
C133        C  0.61827559  0.77152358  0.00662773     0.07900
C134        C  0.64251535  0.79730893  0.01339363    -0.05200
H135        H  0.62758047  0.71700841  0.99230359     0.08600
H136        H  0.63739854  0.82348102  0.02215442     0.09800
Cu137      Cu  0.70981742  0.71610699  0.99423735     0.44200
Cu138      Cu  0.72425327  0.80329857  0.01826942     0.42000
Cu139      Cu  0.79383125  0.73339511  0.01973176     0.43900
N140        N  0.74470271  0.67720841  0.00079717    -0.33800
N141        N  0.77671013  0.68226038  0.01084779    -0.28100
C142        C  0.79158757  0.65079978  0.01567213    -0.04200
C143        C  0.76716834  0.62529695  0.00865161     0.08000
C144        C  0.73793578  0.64320103  0.99936462     0.01800
H145        H  0.81752043  0.64677976  0.02507733     0.09500
H146        H  0.71308998  0.63237397  0.99315399     0.08600
N147        N  0.80152659  0.78714354  0.02725662    -0.35300
N148        N  0.77748172  0.81172805  0.02662243    -0.27500
C149        C  0.79234490  0.84241455  0.03458448    -0.02700
C150        C  0.82725354  0.83715806  0.04017755     0.05900
C151        C  0.83187018  0.80177032  0.03571279     0.04000
H152        H  0.77840006  0.86649663  0.03807208     0.09100
H153        H  0.85539381  0.78736624  0.04011324     0.07900
N154        N  0.85308555  0.51043088  0.75677836    -0.26400
N155        N  0.85803790  0.49739121  0.78786869    -0.34300
C156        C  0.89169303  0.49614123  0.79487304     0.01900
C157        C  0.90922857  0.50865193  0.76671738     0.07900
C158        C  0.88410469  0.51738049  0.74268835    -0.05200
H159        H  0.90248667  0.48792005  0.81928520     0.08600
H160        H  0.88799020  0.52939395  0.71775854     0.09800
Cu161      Cu  0.81975112  0.48755696  0.82224625     0.44200
Cu162      Cu  0.80320947  0.52057489  0.73942991     0.42000
Cu163      Cu  0.73532593  0.51677275  0.80942037     0.43900
N164        N  0.78677628  0.49516531  0.86228743    -0.33800
N165        N  0.75499916  0.50676653  0.85884116    -0.28100
C166        C  0.74223552  0.51319173  0.89068040    -0.04200
C167        C  0.76783790  0.50572837  0.91469773     0.08000
C168        C  0.79550023  0.49437318  0.89566550     0.01800
H169        H  0.71713716  0.52425117  0.89583482     0.09500
H170        H  0.82075660  0.48749382  0.90520882     0.08600
N171        N  0.72652706  0.52630112  0.75675581    -0.35300
N172        N  0.75034442  0.52771965  0.73226799    -0.27500
C173        C  0.73520816  0.53638012  0.70218533    -0.02700
C174        C  0.70027304  0.54085260  0.70775154     0.05900
C175        C  0.69580616  0.53406843  0.74265200     0.04000
H176        H  0.74901194  0.54098810  0.67839162     0.09100
H177        H  0.67203431  0.53567753  0.75710116     0.07900
N178        N  0.27729912  0.85090173  0.53491833    -0.26400
N179        N  0.24617096  0.85476911  0.54804190    -0.34300
C180        C  0.23797222  0.88850739  0.54951989     0.01900
C181        C  0.26535529  0.90724817  0.53712537     0.07900
C182        C  0.29016073  0.88274124  0.52827295    -0.05200
H183        H  0.21313943  0.89849245  0.55739264     0.08600
H184        H  0.31462941  0.88759117  0.51588694     0.09800
Cu185      Cu  0.21263291  0.81518081  0.55615205     0.44200
Cu186      Cu  0.29632435  0.80152542  0.52214027     0.42000
Cu187      Cu  0.22779246  0.73353946  0.51840902     0.43900
N188        N  0.17378101  0.78208477  0.54418746    -0.33800
N189        N  0.17838113  0.75143770  0.52969293    -0.28100
C190        C  0.14730467  0.73849648  0.52116926    -0.04200
C191        C  0.12253694  0.76287247  0.53025352     0.08000
C192        C  0.14026026  0.79001947  0.54470681     0.01800
H193        H  0.14322373  0.71431109  0.50761028     0.09500
H194        H  0.12975820  0.81443770  0.55367606     0.08600
N195        N  0.27979462  0.72549816  0.50733529    -0.35300
N196        N  0.30429657  0.74931848  0.50862826    -0.27500
C197        C  0.33413032  0.73479883  0.49805978    -0.02700
C198        C  0.32819933  0.70032576  0.48950015     0.05900
C199        C  0.29344264  0.69550791  0.49593542     0.04000
H200        H  0.35804641  0.74881932  0.49527933     0.09100
H201        H  0.27882165  0.67201271  0.49205357     0.07900
O202        O  0.02440570  0.79170149  0.46336845    -0.72100
O203        O  0.01230119  0.79252551  0.56584741    -0.73100
O204        O  0.06923266  0.79116840  0.52135818    -0.61700
O205        O  0.96712974  0.79049355  0.50803222    -0.70100
O206        O  0.96740429  0.73284072  0.50865591    -0.69700
O207        O  0.06969927  0.73349404  0.52173057    -0.60900
O208        O  0.01164766  0.73488178  0.56673597    -0.73400
O209        O  0.02581318  0.73406022  0.46369531    -0.72200
Cu210      Cu  0.01819738  0.79344487  0.51460488     1.04600
Cu211      Cu  0.01860612  0.73172973  0.51519865     1.04300
C212        C  0.02760740  0.76295493  0.44745005     0.94100
C213        C  0.01013014  0.76408451  0.58245630     0.93200
C214        C  0.08546545  0.76236816  0.52391230     0.85400
C215        C  0.95119983  0.76154491  0.50619313     0.91700
O216        O  0.01962170  0.46853227  0.79219549    -0.72100
O217        O  0.00930024  0.57249026  0.79481053    -0.73100
O218        O  0.96340083  0.51491074  0.79352751    -0.61700
O219        O  0.06547601  0.52615384  0.79158684    -0.70100
O220        O  0.06484183  0.52735270  0.73428344    -0.69700
O221        O  0.96186969  0.51631961  0.73623631    -0.60900
O222        O  0.00731606  0.57349094  0.73753878    -0.73400
O223        O  0.01926244  0.46997235  0.73490457    -0.72200
Cu224      Cu  0.01450377  0.52046615  0.79500771     1.04600
Cu225      Cu  0.01329642  0.52182289  0.73369809     1.04300
C226        C  0.02114676  0.45293306  0.76319497     0.94100
C227        C  0.00643592  0.58927960  0.76657934     0.93200
C228        C  0.94654211  0.51371346  0.76523778     0.85400
C229        C  0.08125671  0.52878009  0.76275266     0.91700
N230        N  0.00883931  0.77902472  0.67545746    -0.26400
N231        N  0.99303880  0.74886336  0.67292117    -0.34300
C232        C  0.99093234  0.73929887  0.63974572     0.01900
C233        C  0.00554307  0.76496387  0.62000803     0.07900
C234        C  0.01651416  0.79004986  0.64330420    -0.05200
H235        H  0.98051130  0.71490293  0.63083034     0.08600
H236        H  0.03056765  0.81352607  0.63742163     0.09800
Cu237      Cu  0.98079076  0.71874649  0.71417018     0.44200
Cu238      Cu  0.02225842  0.79914131  0.72391344     0.42000
Cu239      Cu  0.02112698  0.73311857  0.79484683     0.43900
N240        N  0.99009923  0.67968121  0.74813804    -0.33800
N241        N  0.00607449  0.68351328  0.77795293    -0.28100
C242        C  0.01309502  0.65156146  0.79063546    -0.04200
C243        C  0.00144534  0.62707813  0.76697436     0.08000
C244        C  0.98707587  0.64595385  0.74056530     0.01800
H245        H  0.02757547  0.64655837  0.81396027     0.09500
H246        H  0.97692238  0.63601371  0.71654765     0.08600
N247        N  0.03335874  0.78599120  0.80114291    -0.35300
N248        N  0.03375044  0.80925878  0.77592570    -0.27500
C249        C  0.04341963  0.84012765  0.78903292    -0.02700
C250        C  0.04951572  0.83650135  0.82419014     0.05900
C251        C  0.04274129  0.80171782  0.83080188     0.04000
H252        H  0.04593590  0.86355300  0.77387149     0.09100
H253        H  0.04554878  0.78842658  0.85522446     0.07900
N254        N  0.17445457  0.53417385  0.75120591    -0.26400
N255        N  0.17033824  0.54408167  0.78352111    -0.34300
C256        C  0.13694933  0.54422694  0.79171776     0.01900
C257        C  0.11858718  0.53419848  0.76315236     0.07900
C258        C  0.14301772  0.52816210  0.73755866    -0.05200
H259        H  0.12693803  0.54978466  0.81719374     0.08600
H260        H  0.13842447  0.51842358  0.71179338     0.09800
Cu261      Cu  0.20939789  0.55029664  0.81763317     0.44200
Cu262      Cu  0.22417951  0.52587277  0.73202027     0.42000
Cu263      Cu  0.29247637  0.51878103  0.80181434     0.43900
N264        N  0.24232833  0.53914976  0.85672021    -0.33800
N265        N  0.27374042  0.52688239  0.85227599    -0.28100
C266        C  0.28685369  0.51926343  0.88374197    -0.04200
C267        C  0.26181011  0.52662030  0.90848198     0.08000
C268        C  0.23412440  0.53910091  0.89025301     0.01800
H269        H  0.31192498  0.50784511  0.88818252     0.09500
H270        H  0.20931851  0.54669547  0.90046510     0.08600
N271        N  0.30046122  0.51288647  0.74817892    -0.35300
N272        N  0.27670193  0.51630644  0.72377771    -0.27500
C273        C  0.29100726  0.50895996  0.69289035    -0.02700
C274        C  0.32522778  0.50038804  0.69780480     0.05900
C275        C  0.33017817  0.50285336  0.73316508     0.04000
H276        H  0.27686872  0.50743920  0.66890657     0.09100
H277        H  0.35330683  0.49603950  0.74714939     0.07900
N278        N  0.85530320  0.27330951  0.52476972    -0.26400
N279        N  0.86014909  0.24168292  0.53698009    -0.34300
C280        C  0.89375820  0.23419415  0.53775893     0.01900
C281        C  0.91153538  0.26255034  0.52589976     0.07900
C282        C  0.88649707  0.28721478  0.51794912    -0.05200
H283        H  0.90437745  0.20943004  0.54559367     0.08600
H284        H  0.89058898  0.31261229  0.50679432     0.09800
Cu285      Cu  0.82192658  0.20751864  0.54801179     0.44200
Cu286      Cu  0.80510325  0.29205640  0.51627769     0.42000
Cu287      Cu  0.73676507  0.22262790  0.52459706     0.43900
N288        N  0.78756347  0.16806607  0.54401197    -0.33800
N289        N  0.75531029  0.17238231  0.53434417    -0.28100
C290        C  0.74129665  0.14069805  0.52933501    -0.04200
C291        C  0.76652882  0.11580921  0.53580538     0.08000
C292        C  0.79531898  0.13423824  0.54507324     0.01800
H293        H  0.71558947  0.13618548  0.51965134     0.09500
H294        H  0.82071710  0.12394907  0.55028494     0.08600
N295        N  0.72789649  0.27558739  0.51492854    -0.35300
N296        N  0.75163746  0.30002222  0.51152163    -0.27500
C297        C  0.73582494  0.33026014  0.50363869    -0.02700
C298        C  0.70051433  0.32486998  0.50193069     0.05900
C299        C  0.69670969  0.28982713  0.50944983     0.04000
H300        H  0.74927083  0.35417217  0.49800495     0.09100
H301        H  0.67297228  0.27528260  0.51039802     0.07900
O302        O  0.79473610  0.95921986  0.51098607    -0.72100
O303        O  0.79432186  0.06174146  0.52732076    -0.73100
O304        O  0.79622774  0.00256690  0.57052065    -0.61700
O305        O  0.79472896  0.01804511  0.46792918    -0.70100
O306        O  0.73759045  0.01852488  0.46880938    -0.69700
O307        O  0.73909504  0.00214732  0.57095015    -0.60900
O308        O  0.73719409  0.06210091  0.52767122    -0.73400
O309        O  0.73760197  0.95871536  0.51218587    -0.72200
Cu310      Cu  0.79698484  0.01041829  0.51918425     1.04600
Cu311      Cu  0.73584104  0.01037076  0.51995313     1.04300
C312        C  0.76626471  0.94283529  0.50888304     0.94100
C313        C  0.76578107  0.07813400  0.52998431     0.93200
C314        C  0.76786483  0.99970926  0.58681389     0.85400
C315        C  0.76599140  0.02071869  0.45226961     0.91700
O316        O  0.50913894  0.96942091  0.79180692    -0.72100
O317        O  0.52193281  0.07284141  0.79070523    -0.73100
O318        O  0.46414083  0.02761698  0.79182467    -0.61700
O319        O  0.56717813  0.01524570  0.79321157    -0.70100
O320        O  0.56770305  0.01394571  0.73595748    -0.69700
O321        O  0.46453432  0.02753065  0.73454422    -0.60900
O322        O  0.52203728  0.07254504  0.73340612    -0.73400
O323        O  0.50997029  0.96857339  0.73453631    -0.72200
Cu324      Cu  0.51556773  0.02124324  0.79384524     1.04600
Cu325      Cu  0.51609784  0.02056784  0.73257301     1.04300
C326        C  0.50745674  0.95268160  0.76332178     0.94100
C327        C  0.52392818  0.08898654  0.76190882     0.93200
C328        C  0.44820387  0.03014220  0.76316142     0.85400
C329        C  0.58369173  0.01271079  0.76486530     0.91700
N330        N  0.67751904  0.00923871  0.77731884    -0.26400
N331        N  0.67344939  0.99427625  0.74696415    -0.34300
C332        C  0.64004504  0.99320801  0.73856719     0.01900
C333        C  0.62137794  0.00764236  0.76507271     0.07900
C334        C  0.64585461  0.01743642  0.78959221    -0.05200
H335        H  0.63017166  0.98335475  0.71438688     0.08600
H336        H  0.64105069  0.03083311  0.81366026     0.09800
Cu337      Cu  0.71296049  0.98037756  0.71546114     0.44200
Cu338      Cu  0.72799916  0.01938467  0.79566645     0.42000
Cu339      Cu  0.79866340  0.00574014  0.72958000     0.43900
N340        N  0.74752299  0.98426224  0.67634315    -0.33800
N341        N  0.77962300  0.99461111  0.68020888    -0.28100
C342        C  0.79314013  0.00015980  0.64852773    -0.04200
C343        C  0.76770396  0.99338115  0.62416530     0.08000
C344        C  0.73943602  0.98333670  0.64285466     0.01800
H345        H  0.81835157  0.01057385  0.64373336     0.09500
H346        H  0.71368768  0.97784544  0.63287696     0.08600
N347        N  0.80642049  0.01964239  0.78138186    -0.35300
N348        N  0.78167826  0.02572096  0.80428158    -0.27500
C349        C  0.79639198  0.03768550  0.83350566    -0.02700
C350        C  0.83187459  0.03858682  0.82921883     0.05900
C351        C  0.83717116  0.02704755  0.79580891     0.04000
H352        H  0.78221554  0.04626304  0.85599057     0.09100
H353        H  0.86148469  0.02616297  0.78221585     0.07900
N354        N  0.52775759  0.18341955  0.75100223    -0.26400
N355        N  0.54037473  0.17886054  0.78230496    -0.34300
C356        C  0.54132509  0.14505973  0.79006992     0.01900
C357        C  0.52910208  0.12676966  0.76228207     0.07900
C358        C  0.52082989  0.15175586  0.73758692    -0.05200
H359        H  0.54921458  0.13468277  0.81478830     0.08600
H360        H  0.50917918  0.14733135  0.71262797     0.11800
Cu361      Cu  0.55038942  0.21761478  0.81632112     0.44200
Cu362      Cu  0.51851970  0.23408301  0.73248276     0.42000
Cu363      Cu  0.52552567  0.30298612  0.80219429     0.43900
N364        N  0.54343729  0.25107285  0.85622225    -0.33800
N365        N  0.53334344  0.28353757  0.85234887    -0.28100
C366        C  0.52708732  0.29689539  0.88405400    -0.04200
C367        C  0.53316347  0.27095883  0.90842475     0.08000
C368        C  0.54346599  0.24248392  0.88967198     0.01800
H369        H  0.51726655  0.32274083  0.88889472     0.09500
H370        H  0.54922937  0.21682446  0.89946468     0.08600
N371        N  0.51671256  0.31206016  0.74926158    -0.35300
N372        N  0.51334505  0.28815145  0.72486615    -0.27500
C373        C  0.50498996  0.30415142  0.69496275    -0.02700
C374        C  0.50295327  0.33980777  0.70045247     0.05900
C375        C  0.51090993  0.34353860  0.73526643     0.04000
H376        H  0.49906547  0.29055254  0.67129433     0.09100
H377        H  0.51169644  0.36735070  0.74993987     0.07900
O378        O  0.23377132  0.51924903  0.96243045    -0.72100
O379        O  0.23420556  0.50707044  0.06549180    -0.73100
O380        O  0.23267619  0.56517820  0.01974720    -0.61700
O381        O  0.23286648  0.46086468  0.00832356    -0.70100
O382        O  0.28996076  0.46154426  0.00763511    -0.69700
O383        O  0.28979007  0.56498075  0.01991276    -0.60900
O384        O  0.29132812  0.50764635  0.06523034    -0.73400
O385        O  0.29089103  0.51894537  0.96207076    -0.72200
Cu386      Cu  0.23134289  0.51306934  0.01398709     1.04600
Cu387      Cu  0.29245120  0.51325058  0.01368335     1.04300
C388        C  0.26232459  0.52112717  0.94604458     0.94100
C389        C  0.26293584  0.50564152  0.08158109     0.93200
C390        C  0.26118496  0.58138111  0.02198574     0.85400
C391        C  0.26157131  0.44486231  0.00603520     0.91700
N392        N  0.25032351  0.67585415  0.02654204    -0.26400
N393        N  0.28200502  0.67141640  0.03809744    -0.34300
C394        C  0.28977767  0.63755559  0.03895324     0.01900
C395        C  0.26171757  0.61918291  0.02758058     0.07900
C396        C  0.23681426  0.64415934  0.02013044    -0.05200
H397        H  0.31474546  0.62720061  0.04582664     0.08600
H398        H  0.21163644  0.63970982  0.00910393     0.09800
Cu399      Cu  0.31672932  0.71030150  0.04564123     0.44200
Cu400      Cu  0.23099097  0.72611920  0.01665485     0.42000
Cu401      Cu  0.30027238  0.79423373  0.01504257     0.43900
N402        N  0.35557003  0.74468787  0.03657366    -0.33800
N403        N  0.35060104  0.77638426  0.02463834    -0.28100
C404        C  0.38172436  0.79072958  0.01835263    -0.04200
C405        C  0.40700865  0.76630328  0.02630024     0.08000
C406        C  0.38931141  0.73759051  0.03771169     0.01800
H407        H  0.38562684  0.81625575  0.00741647     0.09500
H408        H  0.40010292  0.71283291  0.04529251     0.08600
N409        N  0.24742932  0.80330191  0.00670179    -0.35300
N410        N  0.22273839  0.77957349  0.00751616    -0.27500
C411        C  0.19255334  0.79503565  0.99923189    -0.02700
C412        C  0.19838985  0.83002021  0.99305935     0.05900
C413        C  0.23348060  0.83407004  0.99770332     0.04000
H414        H  0.16847693  0.78144062  0.99596680     0.09100
H415        H  0.24809673  0.85748582  0.99328655     0.07900
O416        O  0.96890023  0.52701956  0.30132370    -0.72100
O417        O  0.07113010  0.50882471  0.30075244    -0.73100
O418        O  0.02964928  0.56928599  0.29997887    -0.61700
O419        O  0.01056998  0.46643045  0.29961597    -0.70100
O420        O  0.01091140  0.46694340  0.24231070    -0.69700
O421        O  0.02848590  0.56935785  0.24267800    -0.60900
O422        O  0.07033886  0.50891134  0.24345058    -0.73400
O423        O  0.96889249  0.52760683  0.24402248    -0.72200
Cu424      Cu  0.02003526  0.51786866  0.30249656     1.04600
Cu425      Cu  0.01961940  0.51819861  0.24117662     1.04300
C426        C  0.95287956  0.53025690  0.27275702     0.94100
C427        C  0.08677701  0.50615095  0.27192691     0.93200
C428        C  0.03234306  0.58537187  0.27117175     0.85400
C429        C  0.00781208  0.45055823  0.27070974     0.91700
N430        N  0.03691959  0.77637270  0.35453300    -0.26400
N431        N  0.05237294  0.74613845  0.35912574    -0.34300
C432        C  0.05114824  0.73708638  0.39246607     0.01900
C433        C  0.03460670  0.76302501  0.41026096     0.07900
C434        C  0.02611542  0.78788802  0.38564017    -0.05200
H435        H  0.06080358  0.71285047  0.40276843     0.08600
H436        H  0.01186989  0.81168149  0.38982125     0.09800
Cu437      Cu  0.06824561  0.71419603  0.32054295     0.44200
Cu438      Cu  0.02833116  0.79655300  0.30479800     0.42000
Cu439      Cu  0.03571065  0.72849213  0.23733469     0.43900
N440        N  0.05700693  0.67418499  0.28839367    -0.33800
N441        N  0.04392638  0.67843637  0.25725485    -0.28100
C442        C  0.03404230  0.64706449  0.24536808    -0.04200
C443        C  0.04067079  0.62252971  0.27088345     0.08000
C444        C  0.05521892  0.64072592  0.29764364     0.01800
H445        H  0.02115827  0.64273078  0.22101193     0.09500
H446        H  0.06246804  0.63073473  0.32271203     0.08600
N447        N  0.02558227  0.78125891  0.22760674    -0.35300
N448        N  0.02222262  0.80559801  0.25153025    -0.27500
C449        C  0.01276021  0.83557346  0.23604004    -0.02700
C450        C  0.00988864  0.83009681  0.20064165     0.05900
C451        C  0.01859190  0.79526847  0.19653208     0.04000
H452        H  0.00655009  0.85918222  0.24982410     0.09100
H453        H  0.01898050  0.78061536  0.17276166     0.07900
N454        N  0.27624367  0.50233973  0.17503665    -0.26400
N455        N  0.24413801  0.49188380  0.17188081    -0.34300
C456        C  0.23505304  0.49122828  0.13858723     0.01900
C457        C  0.26291025  0.50136900  0.11925611     0.07900
C458        C  0.28889855  0.50815894  0.14305474    -0.05200
H459        H  0.20966336  0.48468229  0.12927467     0.08600
H460        H  0.31444404  0.51782632  0.13759594     0.09800
Cu461      Cu  0.21250964  0.48341222  0.21263378     0.44200
Cu462      Cu  0.29671033  0.51000263  0.22460526     0.42000
Cu463      Cu  0.23096448  0.51062730  0.29741338     0.43900
N464        N  0.17517899  0.48997091  0.24860817    -0.33800
N465        N  0.18044385  0.50100638  0.28039980    -0.28100
C466        C  0.14939234  0.50699876  0.29509485    -0.04200
C467        C  0.12403639  0.49974577  0.27072917     0.08000
C468        C  0.14149682  0.48904666  0.24181415     0.01800
H469        H  0.14561229  0.51781888  0.32057974     0.09500
H470        H  0.13064578  0.48285968  0.21686597     0.08600
N471        N  0.28450681  0.51735393  0.30295767    -0.35300
N472        N  0.30729143  0.51640797  0.27748554    -0.27500
C473        C  0.33881775  0.52215870  0.29061980    -0.02700
C474        C  0.33628774  0.52749428  0.32607080     0.05900
C475        C  0.30125159  0.52410337  0.33272518     0.04000
H476        H  0.36176602  0.52280160  0.27494344     0.09100
H477        H  0.28847018  0.52783569  0.35722515     0.07900
O478        O  0.52626595  0.24203541  0.96198166    -0.72100
O479        O  0.51443079  0.24004851  0.06483291    -0.73100
O480        O  0.46881566  0.23915766  0.00793833    -0.61700
O481        O  0.57173811  0.24070805  0.01906896    -0.70100
O482        O  0.57054307  0.29830285  0.02061016    -0.69700
O483        O  0.46779145  0.29677377  0.00805671    -0.60900
O484        O  0.51341474  0.29766083  0.06591225    -0.73400
O485        O  0.52507812  0.29964060  0.96250706    -0.72200
Cu486      Cu  0.52032190  0.23849851  0.01338079     1.04600
Cu487      Cu  0.51913893  0.30013489  0.01427289     1.04300
C488        C  0.52775073  0.27108628  0.94603192     0.94100
C489        C  0.51222099  0.26856947  0.08160127     0.93200
C490        C  0.45211901  0.26764933  0.00622784     0.85400
C491        C  0.58727656  0.26967037  0.02201023     0.91700
N492        N  0.78332579  0.35598283  0.03064270    -0.26400
N493        N  0.75168341  0.36056004  0.04225915    -0.34300
C494        C  0.74409541  0.39439204  0.04342984     0.01900
C495        C  0.77222299  0.41274370  0.03229949     0.07900
C496        C  0.79702799  0.38770107  0.02453754    -0.05200
H497        H  0.71915606  0.40477440  0.05044029     0.08600
H498        H  0.82227215  0.39214480  0.01365642     0.09800
Cu499      Cu  0.71643228  0.32240479  0.04984710     0.44200
Cu500      Cu  0.80210706  0.30537630  0.02106854     0.42000
Cu501      Cu  0.73065170  0.23871001  0.02196966     0.43900
N502        N  0.67634633  0.29005996  0.03998545    -0.33800
N503        N  0.68057564  0.25806236  0.02870408    -0.28100
C504        C  0.64926355  0.24488443  0.02119515    -0.04200
C505        C  0.62468656  0.27044108  0.02769438     0.08000
C506        C  0.64291947  0.29857861  0.03954849     0.01800
H507        H  0.64482969  0.21934511  0.01051314     0.09500
H508        H  0.63279169  0.32384479  0.04637876     0.08600
N509        N  0.78345008  0.22818591  0.01625145    -0.35300
N510        N  0.80872960  0.25119275  0.01498134    -0.27500
C511        C  0.83847749  0.23412101  0.00841585    -0.02700
C512        C  0.83188687  0.19868726  0.00545789     0.05900
C513        C  0.79660228  0.19629935  0.01097580     0.04000
H514        H  0.86292294  0.24687327  0.00443474     0.09100
H515        H  0.78099877  0.17316500  0.01064878     0.07900
O516        O  0.56984930  0.02635917  0.30004539    -0.72100
O517        O  0.46776433  0.00969290  0.30219203    -0.73100
O518        O  0.52699200  0.96618016  0.30216949    -0.61700
O519        O  0.51097501  0.07001980  0.30212632    -0.70100
O520        O  0.51008991  0.06893165  0.24485339    -0.69700
O521        O  0.52611347  0.96654066  0.24487388    -0.60900
O522        O  0.46684218  0.01016518  0.24489508    -0.73400
O523        O  0.56902025  0.02525354  0.24275195    -0.72200
Cu524      Cu  0.51889146  0.01805662  0.30372438     1.04600
Cu525      Cu  0.51791961  0.01770874  0.24242217     1.04300
C526        C  0.58547933  0.02835915  0.27101990     0.94100
C527        C  0.45124294  0.00738945  0.27371373     0.93200
C528        C  0.52940469  0.95019788  0.27339880     0.85400
C529        C  0.50827676  0.08575488  0.27324181     0.91700
N530        N  0.77665749  0.02668252  0.35879628    -0.26400
N531        N  0.74582356  0.04027507  0.36335827    -0.34300
C532        C  0.73783145  0.04047485  0.39695939     0.01900
C533        C  0.76520306  0.02683579  0.41491527     0.07900
C534        C  0.78968049  0.01842312  0.39006120    -0.05200
H535        H  0.71338011  0.04894616  0.40738696     0.08600
H536        H  0.81420410  0.00576311  0.39426060     0.09800
Cu537      Cu  0.71369043  0.05247632  0.32385028     0.44200
Cu538      Cu  0.79472038  0.01749303  0.30868140     0.42000
Cu539      Cu  0.72789188  0.02124170  0.23844492     0.43900
N540        N  0.67484214  0.04537957  0.28962876    -0.33800
N541        N  0.67858849  0.03301360  0.25805803    -0.28100
C542        C  0.64689415  0.02646198  0.24526207    -0.04200
C543        C  0.62273935  0.03458250  0.27059235     0.08000
C544        C  0.64149807  0.04650376  0.29812106     0.01800
H545        H  0.64192248  0.01457105  0.22048309     0.09500
H546        H  0.63182537  0.05360681  0.32334761     0.08600
N547        N  0.78053756  0.00974167  0.23093927    -0.35300
N548        N  0.80376967  0.00889584  0.25598682    -0.27500
C549        C  0.83425981  0.99919655  0.24263411    -0.02700
C550        C  0.83053547  0.99308455  0.20752903     0.05900
C551        C  0.79602224  0.00036357  0.20107946     0.04000
H552        H  0.85738796  0.99606144  0.25780800     0.09100
H553        H  0.78267765  0.99736336  0.17677406     0.07900
N554        N  0.50593772  0.18061642  0.28050483    -0.26400
N555        N  0.49718853  0.17519069  0.24806933    -0.34300
C556        C  0.49534477  0.14117806  0.24173213     0.01900
C557        C  0.50322905  0.12358654  0.27155045     0.07900
C558        C  0.50970167  0.14931089  0.29601693    -0.05200
H559        H  0.49052739  0.13009217  0.21655174     0.08600
H560        H  0.51843223  0.14553163  0.32226275     0.09800
Cu561      Cu  0.49423383  0.21270759  0.21137507     0.44200
Cu562      Cu  0.51539821  0.23177017  0.29714361     0.42000
Cu563      Cu  0.51662775  0.29940207  0.22527625     0.43900
N564        N  0.50092735  0.24629950  0.17152526    -0.33800
N565        N  0.50925756  0.27922348  0.17544517    -0.28100
C566        C  0.51367680  0.29323009  0.14375898    -0.04200
C567        C  0.50820597  0.26734233  0.11930335     0.08000
C568        C  0.50025174  0.23809710  0.13797522     0.01800
H569        H  0.52159482  0.31969305  0.13891750     0.09500
H570        H  0.49518023  0.21240502  0.12801171     0.08600
N571        N  0.52441760  0.30912739  0.27816943    -0.35300
N572        N  0.52414723  0.28549239  0.30314122    -0.27500
C573        C  0.53281132  0.30107003  0.33304921    -0.02700
C574        C  0.53834331  0.33605402  0.32701743     0.05900
C575        C  0.53319218  0.34008614  0.29187706     0.04000
H576        H  0.53671175  0.28752357  0.35719935     0.09100
H577        H  0.53758082  0.36340635  0.27698485     0.07900
O578        O  0.29399871  0.96109605  0.52908601    -0.72100
O579        O  0.29386161  0.06454555  0.51537641    -0.73100
O580        O  0.29234623  0.02035470  0.57301586    -0.61700
O581        O  0.29365501  0.00543018  0.47124330    -0.70100
O582        O  0.23650728  0.00578505  0.47021813    -0.69700
O583        O  0.23518192  0.01985541  0.57300988    -0.60900
O584        O  0.23673130  0.06421706  0.51436175    -0.73400
O585        O  0.23685570  0.96113807  0.52909551    -0.72200
Cu586      Cu  0.29544059  0.01279556  0.52220635     1.04600
Cu587      Cu  0.23427530  0.01269064  0.52163932     1.04300
C588        C  0.26552142  0.94490009  0.53140751     0.94100
C589        C  0.26525820  0.08062531  0.51269705     0.93200
C590        C  0.26368159  0.02301700  0.58897398     0.85400
C591        C  0.26533696  0.00335318  0.45464208     0.91700
N592        N  0.25346019  0.03486144  0.68182614    -0.26400
N593        N  0.28406102  0.04843491  0.67594089    -0.34300
C594        C  0.29150510  0.04650180  0.64235069     0.01900
C595        C  0.26425691  0.03126076  0.62579366     0.07900
C596        C  0.24016315  0.02436656  0.65136497    -0.05200
H597        H  0.31573088  0.05433165  0.63107262     0.08600
H598        H  0.21579720  0.01119689  0.64832889     0.09800
Cu599      Cu  0.31874933  0.06181500  0.71277551     0.44200
Cu600      Cu  0.23545238  0.02856501  0.73224830     0.42000
Cu601      Cu  0.30567807  0.03712018  0.79807405     0.43900
N602        N  0.35918013  0.05151567  0.74449354    -0.33800
N603        N  0.35542610  0.04151148  0.77682731    -0.28100
C604        C  0.38680514  0.03280685  0.78923315    -0.04200
C605        C  0.41086765  0.03704940  0.76288600     0.08000
C606        C  0.39226947  0.04891601  0.73504358     0.01800
H607        H  0.39158554  0.02285587  0.81489291     0.09500
H608        H  0.40187515  0.05436056  0.70939977     0.08600
N609        N  0.25288531  0.03049814  0.80901656    -0.35300
N610        N  0.22823507  0.02656838  0.78573333    -0.27500
C611        C  0.19850359  0.01919175  0.80207710    -0.02700
C612        C  0.20429444  0.01830930  0.83743711     0.05900
C613        C  0.23915394  0.02601525  0.84063205     0.04000
H614        H  0.17485754  0.01262019  0.78891682     0.09100
H615        H  0.25407449  0.02701315  0.86412848     0.07900
O616        O  0.01077152  0.23492678  0.46141946    -0.72100
O617        O  0.02278505  0.23492540  0.56474079    -0.73100
O618        O  0.96575742  0.23519455  0.51935366    -0.61700
O619        O  0.06805014  0.23662785  0.50647785    -0.70100
O620        O  0.06749568  0.29425537  0.50667753    -0.69700
O621        O  0.96453149  0.29282217  0.51906870    -0.60900
O622        O  0.02253428  0.29255413  0.56425443    -0.73400
O623        O  0.00925242  0.29256083  0.46189343    -0.72200
Cu624      Cu  0.01693640  0.23338742  0.51301127     1.04600
Cu625      Cu  0.01598054  0.29505690  0.51300057     1.04300
C626        C  0.00752386  0.26378156  0.44558075     0.94100
C627        C  0.02449021  0.26383096  0.58070995     0.93200
C628        C  0.94899700  0.26376447  0.52107396     0.85400
C629        C  0.08389116  0.26561554  0.50435334     0.91700
N630        N  0.02434948  0.25498366  0.67476121    -0.26400
N631        N  0.03664702  0.28656769  0.67022801    -0.34300
C632        C  0.03958982  0.29343795  0.63652807     0.01900
C633        C  0.02891176  0.26481619  0.61836618     0.07900
C634        C  0.01955213  0.24055303  0.64329556    -0.05200
H635        H  0.04723126  0.31826663  0.62605074     0.08600
H636        H  0.00816672  0.21535061  0.63886170     0.09800
Cu637      Cu  0.04267660  0.32240906  0.70829043     0.44200
Cu638      Cu  0.01150932  0.23749745  0.72459750     0.42000
Cu639      Cu  0.01241760  0.30863079  0.79188619     0.43900
N640        N  0.03451090  0.36258996  0.74143011    -0.33800
N641        N  0.02300374  0.35855436  0.77319924    -0.28100
C642        C  0.01743017  0.39033223  0.78688789    -0.04200
C643        C  0.02538920  0.41503937  0.76194238     0.08000
C644        C  0.03604510  0.39640284  0.73359168     0.01800
H645        H  0.00682029  0.39506474  0.81227016     0.09500
H646        H  0.04332635  0.40657749  0.70861374     0.08600
N647        N  0.00181885  0.25600508  0.80104885    -0.35300
N648        N  0.00121335  0.23090823  0.77761713    -0.27500
C649        C  0.99213987  0.20099286  0.79331329    -0.02700
C650        C  0.98665953  0.20736033  0.82819833     0.05900
C651        C  0.99320254  0.24255609  0.83192453     0.04000
H652        H  0.98856493  0.17662545  0.77998612     0.09100
H653        H  0.99152042  0.25761930  0.85546636     0.07900
N654        N  0.27604534  0.17477759  0.50766743    -0.26400
N655        N  0.24493540  0.17038281  0.49486287    -0.34300
C656        C  0.23700859  0.13662077  0.49440586     0.01900
C657        C  0.26462182  0.11831418  0.50712767     0.07900
C658        C  0.28925444  0.14318006  0.51523155    -0.05200
H659        H  0.21243508  0.12630847  0.48639220     0.08600
H660        H  0.31405446  0.13874532  0.52714944     0.09800
Cu661      Cu  0.21225483  0.21007334  0.48371389     0.44200
Cu662      Cu  0.29421363  0.22522811  0.51640631     0.42000
Cu663      Cu  0.22671367  0.29629202  0.51072596     0.43900
N664        N  0.17332308  0.24490371  0.48936965    -0.33800
N665        N  0.17724770  0.27716823  0.50006443    -0.28100
C666        C  0.14564871  0.29083347  0.50573390    -0.04200
C667        C  0.12129728  0.26533215  0.49875240     0.08000
C668        C  0.13990673  0.23680092  0.48842089     0.01800
H669        H  0.14085262  0.31643369  0.51617928     0.09500
H670        H  0.13004030  0.21129725  0.48241102     0.08600
N671        N  0.27914963  0.30357116  0.52213836    -0.35300
N672        N  0.30260615  0.27855142  0.52390766    -0.27500
C673        C  0.33277691  0.29251130  0.53365723    -0.02700
C674        C  0.32848177  0.32794297  0.53873078     0.05900
C675        C  0.29408385  0.33391597  0.53088989     0.04000
H676        H  0.35603367  0.27755565  0.53756058     0.09100
H677        H  0.28034458  0.35824609  0.53318314     0.07900
N678        N  0.00052847  0.25402336  0.35211213    -0.26400
N679        N  0.98678994  0.28495363  0.35731690    -0.34300
C680        C  0.98667485  0.29225660  0.39104328     0.01900
C681        C  0.00072591  0.26453711  0.40838581     0.07900
C682        C  0.00905272  0.24036050  0.38308282    -0.05200
H683        H  0.97849501  0.31677772  0.40194060     0.08600
H684        H  0.02212776  0.21580910  0.38672600     0.09800
Cu685      Cu  0.97612932  0.31995637  0.31945461     0.44200
Cu686      Cu  0.01060311  0.23658443  0.30199876     0.42000
Cu687      Cu  0.00808481  0.30763737  0.23568239     0.43900
N688        N  0.98677179  0.36072414  0.28783021    -0.33800
N689        N  0.99925995  0.35721208  0.25635004    -0.28100
C690        C  0.00768500  0.38902438  0.24444639    -0.04200
C691        C  0.00064924  0.41313226  0.27025751     0.08000
C692        C  0.98747341  0.39417680  0.29724864     0.01800
H693        H  0.01977226  0.39401662  0.21979713     0.09500
H694        H  0.98024110  0.40373763  0.32248970     0.08600
N695        N  0.01765165  0.25490834  0.22555141    -0.35300
N696        N  0.01882394  0.22988095  0.24900568    -0.27500
C697        C  0.02791958  0.19996391  0.23342347    -0.02700
C698        C  0.03287323  0.20613625  0.19849639     0.05900
C699        C  0.02589831  0.24133269  0.19459576     0.04000
H700        H  0.03241647  0.17582451  0.24697217     0.09100
H701        H  0.02743942  0.25640160  0.17110825     0.07900
N702        N  0.25710593  0.00098989  0.36099683    -0.26400
N703        N  0.28805364  0.98772027  0.36580317    -0.34300
C704        C  0.29478518  0.98559179  0.39957542     0.01900
C705        C  0.26660800  0.99782417  0.41728663     0.07900
C706        C  0.24285844  0.00727152  0.39217323    -0.05200
H707        H  0.31917778  0.97746105  0.41034119     0.08600
H708        H  0.21819053  0.01971470  0.39620216     0.09800
Cu709      Cu  0.32283810  0.98000061  0.32729201     0.44200
Cu710      Cu  0.24040172  0.01309281  0.31126069     0.42000
Cu711      Cu  0.30869821  0.01249720  0.24263963     0.43900
N712        N  0.36211421  0.98964098  0.29389459    -0.33800
N713        N  0.35803443  0.00198044  0.26235817    -0.28100
C714        C  0.38947893  0.00904138  0.24929732    -0.04200
C715        C  0.41394700  0.00128629  0.27436358     0.08000
C716        C  0.39557884  0.98908707  0.30213449     0.01800
H717        H  0.39407231  0.02074057  0.22434635     0.09500
H718        H  0.40561932  0.98167306  0.32711788     0.08600
N719        N  0.25613734  0.02280065  0.23427980    -0.35300
N720        N  0.23236648  0.02287192  0.25882834    -0.27500
C721        C  0.20197497  0.03201287  0.24495984    -0.02700
C722        C  0.20638224  0.03835982  0.21001703     0.05900
C723        C  0.24112882  0.03202666  0.20418742     0.04000
H724        H  0.17842676  0.03457865  0.25962928     0.09100
H725        H  0.25488434  0.03555567  0.18017971     0.07900
N726        N  0.25337258  0.34994186  0.00234807    -0.26400
N727        N  0.28497311  0.35531343  0.99115254    -0.34300
C728        C  0.29163292  0.38930279  0.99009813     0.01900
C729        C  0.26285809  0.40698299  0.00088831     0.07900
C730        C  0.23866109  0.38132123  0.00831990    -0.05200
H731        H  0.31635433  0.40025081  0.98345685     0.08600
H732        H  0.21320308  0.38513663  0.01899029     0.09800
Cu733      Cu  0.32084403  0.31758686  0.98412226     0.44200
Cu734      Cu  0.23705111  0.29853815  0.01180330     0.42000
Cu735      Cu  0.30999057  0.23231365  0.01224491     0.43900
N736        N  0.36178508  0.28578039  0.99237346    -0.33800
N737        N  0.35902036  0.25345206  0.00319569    -0.28100
C738        C  0.39107024  0.24099731  0.00894596    -0.04200
C739        C  0.41452911  0.26732805  0.00182054     0.08000
C740        C  0.39490646  0.29518984  0.99148177     0.01800
H741        H  0.39679801  0.21542264  0.01898767     0.09500
H742        H  0.40390326  0.32085307  0.98476524     0.08600
N743        N  0.25755466  0.22148041  0.02075906    -0.35300
N744        N  0.23206727  0.24453474  0.02048040    -0.27500
C745        C  0.20269431  0.22824882  0.02945870    -0.02700
C746        C  0.20965877  0.19343167  0.03533517     0.05900
C747        C  0.24476632  0.19027321  0.02999374     0.04000
H748        H  0.17832340  0.24124821  0.03355179     0.09100
H749        H  0.26026700  0.16736337  0.03454683     0.07900
C750        C  0.42343693  0.42806834  0.60595338    -0.01600
C751        C  0.61155012  0.42348137  0.42848020    -0.01600
C752        C  0.60521691  0.60778894  0.60808338    -0.01600
C753        C  0.42584130  0.60302515  0.42142059    -0.01600
C754        C  0.51755124  0.51571389  0.51574762    -0.01600
C755        C  0.47435021  0.55762083  0.43274633     0.24400
C756        C  0.44900012  0.58026238  0.44660282    -0.23700
C757        C  0.44447598  0.57808660  0.48298633     0.19400
C758        C  0.46732882  0.55912028  0.50408102     0.24400
C759        C  0.49348632  0.53729679  0.49030403    -0.23600
C760        C  0.49444858  0.53541633  0.45361722     0.19300
F761        F  0.51341930  0.51126718  0.43677868    -0.13600
F762        F  0.47940846  0.55604325  0.39817323    -0.15900
F763        F  0.46324740  0.56206511  0.53871371    -0.15900
F764        F  0.41706159  0.59260876  0.49908295    -0.13600
C765        C  0.56423624  0.59728312  0.55617836     0.24400
C766        C  0.58352133  0.58295199  0.58384262    -0.23700
C767        C  0.58044251  0.54642604  0.58837222     0.19400
C768        C  0.56189327  0.52564393  0.56493867     0.24400
C769        C  0.54120948  0.54021346  0.53845512    -0.23600
C770        C  0.54421061  0.57670925  0.53385683     0.19300
F771        F  0.52968927  0.59317926  0.50657867    -0.13600
F772        F  0.56555134  0.63183432  0.54968044    -0.15900
F773        F  0.56181830  0.49079722  0.57020496    -0.15900
F774        F  0.59324778  0.53010620  0.61656184    -0.13600
C775        C  0.56468040  0.43374695  0.47543858     0.24400
C776        C  0.58875919  0.44833496  0.45207555    -0.23700
C777        C  0.59267373  0.48502908  0.45455623     0.19400
C778        C  0.57008470  0.50568037  0.47456125     0.24400
C779        C  0.54390515  0.49109214  0.49563110    -0.23600
C780        C  0.54492912  0.45422983  0.49822456     0.19300
F781        F  0.52896985  0.43700857  0.52411460    -0.13600
F782        F  0.56068735  0.39883867  0.47725398    -0.15900
F783        F  0.57370753  0.54064900  0.47268372    -0.15900
F784        F  0.61893158  0.50185499  0.43890846    -0.13600
C785        C  0.46466455  0.47953813  0.59527264     0.24400
C786        C  0.44532120  0.45196102  0.58102653    -0.23700
C787        C  0.44910245  0.44688487  0.54479099     0.19400
C788        C  0.46965028  0.46907018  0.52439174     0.24400
C789        C  0.49137534  0.49451223  0.53924765    -0.23600
C790        C  0.48598365  0.50080241  0.57510174     0.19300
F791        F  0.49880917  0.52921180  0.59115781    -0.13600
F792        F  0.46224982  0.48701964  0.62938557    -0.15900
F793        F  0.47047374  0.46353016  0.48978625    -0.15900
F794        F  0.43515483  0.41920261  0.52850412    -0.13600
C795        C  0.40023877  0.36422760  0.59481858     0.24400
C796        C  0.40083539  0.40032269  0.58642234    -0.23700
C797        C  0.37544115  0.41174299  0.56248463     0.19400
C798        C  0.35276092  0.38844985  0.54635969     0.24400
C799        C  0.35379402  0.35279347  0.55397505    -0.23600
C800        C  0.37797856  0.34116548  0.57824950     0.19300
F801        F  0.37844203  0.30746086  0.58845685    -0.13600
F802        F  0.41786771  0.35069199  0.62178416    -0.15900
F803        F  0.32982550  0.40100497  0.52306180    -0.15900
F804        F  0.37242946  0.44593201  0.55457283    -0.13600
C805        C  0.53785269  0.38606341  0.36919616     0.24400
C806        C  0.55592265  0.36054185  0.35065897    -0.23700
C807        C  0.59137777  0.35759671  0.35533651     0.19400
C808        C  0.60848675  0.37857397  0.37910803     0.24400
C809        C  0.59050959  0.40274321  0.40052388    -0.23600
C810        C  0.55476747  0.40711047  0.39368333     0.19300
F811        F  0.53595063  0.43217605  0.40942508    -0.13600
F812        F  0.50363797  0.39051527  0.36370465    -0.15900
F813        F  0.64282973  0.37341411  0.38264253    -0.15900
F814        F  0.60962016  0.33371655  0.33709206    -0.13600
C815        C  0.36056018  0.53543455  0.38660008     0.24400
C816        C  0.36381971  0.53949927  0.35051422    -0.23700
C817        C  0.39324292  0.55673627  0.33819576     0.19400
C818        C  0.41571879  0.57341162  0.36085019     0.24400
C819        C  0.40818101  0.57596559  0.39669456    -0.23600
C820        C  0.38311351  0.55256962  0.40940307     0.19300
F821        F  0.37754840  0.54973350  0.44387342    -0.13600
F822        F  0.33487691  0.51585740  0.40003406    -0.15900
F823        F  0.44477113  0.58700211  0.34694354    -0.15900
F824        F  0.39994784  0.55924877  0.30395776    -0.13600
C825        C  0.47155256  0.39613286  0.68868232     0.24400
C826        C  0.48940563  0.36695639  0.67609534    -0.23700
C827        C  0.49268359  0.36355669  0.63998064     0.19400
C828        C  0.47477539  0.38600395  0.61744299     0.24400
C829        C  0.45102619  0.41079529  0.63046555    -0.23600
C830        C  0.45383615  0.41836134  0.66630686     0.19300
F831        F  0.43956753  0.44719051  0.68050838    -0.13600
F832        F  0.46939356  0.40260978  0.72301168    -0.15900
F833        F  0.47732938  0.38050060  0.58293750    -0.15900
F834        F  0.51229373  0.33780223  0.62632778    -0.13600
C835        C  0.64514980  0.33774575  0.47061124     0.24400
C836        C  0.67352365  0.34973929  0.48956225    -0.23700
C837        C  0.67613123  0.38575689  0.49540987     0.19400
C838        C  0.65355283  0.40921764  0.47894631     0.24400
C839        C  0.62932376  0.39732606  0.45429905    -0.23600
C840        C  0.62256924  0.36099530  0.45464766     0.19300
F841        F  0.59397170  0.34721055  0.44004452    -0.13600
F842        F  0.63982105  0.30330318  0.46577331    -0.15900
F843        F  0.65832483  0.44375956  0.48377290    -0.15900
F844        F  0.70123297  0.39844530  0.51615970    -0.13600
C845        C  0.35512602  0.44750009  0.67660332     0.24400
C846        C  0.34824326  0.48284897  0.67270336    -0.23700
C847        C  0.36273469  0.50053969  0.64458588     0.19400
C848        C  0.38596366  0.48367365  0.62216249     0.24400
C849        C  0.39567798  0.44841254  0.62770724    -0.23600
C850        C  0.37737692  0.43032414  0.65401357     0.19300
F851        F  0.38269444  0.39601076  0.65964006    -0.13600
F852        F  0.34009741  0.42932704  0.70255993    -0.15900
F853        F  0.39738177  0.50186277  0.59450385    -0.15900
F854        F  0.35463736  0.53437027  0.63897537    -0.13600
C855        C  0.34063763  0.65171910  0.44834791     0.24400
C856        C  0.35249340  0.67507364  0.47333293    -0.23700
C857        C  0.38771399  0.67500855  0.48129977     0.19400
C858        C  0.41045235  0.65191032  0.46483666     0.24400
C859        C  0.39868806  0.62658877  0.44084536    -0.23600
C860        C  0.36298208  0.62838166  0.43209861     0.19300
F861        F  0.34928146  0.61096791  0.40508664    -0.13600
F862        F  0.30748516  0.65311524  0.43735325    -0.15900
F863        F  0.44438393  0.65413578  0.47277482    -0.15900
F864        F  0.40030085  0.69716415  0.50538147    -0.13600
C865        C  0.65040008  0.57979456  0.69476229     0.24400
C866        C  0.67458451  0.55547371  0.68320252    -0.23700
C867        C  0.67570757  0.54768215  0.64783873     0.19400
C868        C  0.65292460  0.56372111  0.62462270     0.24400
C869        C  0.62744290  0.58783245  0.63588719    -0.23600
C870        C  0.62805029  0.59636494  0.67180289     0.19300
F871        F  0.61072559  0.62372285  0.68520517    -0.13600
F872        F  0.65036001  0.59027233  0.72822612    -0.15900
F873        F  0.65614280  0.55582664  0.59063541    -0.15900
F874        F  0.69902553  0.52448977  0.63552770    -0.13600
C875        C  0.64923283  0.48306155  0.35624166     0.24400
C876        C  0.68479670  0.47661575  0.35756541    -0.23700
C877        C  0.69705602  0.45308780  0.38223669     0.19400
C878        C  0.67469466  0.43608508  0.40484372     0.24400
C879        C  0.63865214  0.44363771  0.40555656    -0.23600
C880        C  0.62665537  0.46702000  0.37969215     0.19300
F881        F  0.59254361  0.47410147  0.37674596    -0.13600
F882        F  0.63611536  0.50508519  0.33224607    -0.15900
F883        F  0.68894595  0.40933836  0.42240506    -0.15900
F884        F  0.73080527  0.44388024  0.38266502    -0.13600
C885        C  0.49823113  0.66326823  0.38274162     0.24400
C886        C  0.48029606  0.67959990  0.35572417    -0.23700
C887        C  0.44519315  0.67320256  0.35209225     0.19400
C888        C  0.42835480  0.65012356  0.37402797     0.24400
C889        C  0.44637843  0.63062327  0.39965747    -0.23600
C890        C  0.48166592  0.63909874  0.40451379     0.19300
F891        F  0.50022518  0.62543769  0.43084342    -0.13600
F892        F  0.53202969  0.67038868  0.38780484    -0.15900
F893        F  0.39429295  0.64538147  0.36841330    -0.15900
F894        F  0.42685548  0.68958576  0.32705418    -0.13600
C895        C  0.53749304  0.64361559  0.67278189     0.24400
C896        C  0.54192413  0.67984953  0.66962207    -0.23700
C897        C  0.55939898  0.69201016  0.64017796     0.19400
C898        C  0.57601268  0.66902263  0.61768733     0.24400
C899        C  0.57793499  0.63291518  0.62507514    -0.23600
C900        C  0.55416465  0.62045780  0.64992604     0.19300
F901        F  0.55090482  0.58582083  0.65539095    -0.13600
F902        F  0.51814409  0.63039152  0.69877140    -0.15900
F903        F  0.59046799  0.68289576  0.58895638    -0.15900
F904        F  0.56239325  0.72644297  0.63367399    -0.13600
C905        C  0.67684007  0.67573566  0.59096434     0.24400
C906        C  0.68431419  0.67165389  0.55601218    -0.23700
C907        C  0.66820270  0.64502361  0.53750944     0.19400
C908        C  0.64352474  0.62364700  0.55341848     0.24400
C909        C  0.63356585  0.62917601  0.58840327    -0.23600
C910        C  0.65258296  0.65463853  0.60706431     0.19300
F911        F  0.64654462  0.66065178  0.64098436    -0.13600
F912        F  0.69311316  0.70051873  0.60974517    -0.15900
F913        F  0.63103642  0.59690122  0.53454812    -0.15900
F914        F  0.67613033  0.63991281  0.50376576    -0.13600
C915        C  0.10136521  0.91218798  0.86002246     0.24400
C916        C  0.09251636  0.91287708  0.89587308    -0.23700
C917        C  0.06933018  0.88663263  0.90703670     0.19400
C918        C  0.05472580  0.86271785  0.88391490     0.24400
C919        C  0.06314715  0.86323860  0.84864936    -0.23600
C920        C  0.08638789  0.88848728  0.83712924     0.19300
F921        F  0.09715913  0.88862838  0.80378682    -0.13600
F922        F  0.12743489  0.93114622  0.84665923    -0.15900
F923        F  0.03215279  0.83896589  0.89628739    -0.15900
F924        F  0.06099010  0.88370267  0.94092700    -0.13600
C925        C  0.12750145  0.89762863  0.97879052     0.24400
C926        C  0.13331131  0.90782773  0.94391224    -0.23700
C927        C  0.15912958  0.88891445  0.92560815     0.19400
C928        C  0.17982215  0.86408006  0.94179358     0.24400
C929        C  0.17480452  0.85547422  0.97641729    -0.23600
C930        C  0.14804617  0.87185393  0.99461925     0.19300
F931        F  0.14188327  0.86304705  0.02796782    -0.13600
F932        F  0.10119835  0.91097698  0.99758359    -0.15900
F933        F  0.20502940  0.84817084  0.92331465    -0.15900
F934        F  0.16573017  0.89553534  0.89189352    -0.13600
C935        C  0.14432543  0.00721752  0.86102829     0.24400
C936        C  0.18036403  0.00444969  0.86445395    -0.23700
C937        C  0.19325612  0.98597356  0.89294014     0.19400
C938        C  0.17132635  0.96696048  0.91433554     0.24400
C939        C  0.13561680  0.96391010  0.90680348    -0.23600
C940        C  0.12219776  0.98816528  0.88271862     0.19300
F941        F  0.08776528  0.99024070  0.87720815    -0.13600
F942        F  0.13039466  0.02737844  0.83590003    -0.15900
F943        F  0.18579350  0.95182545  0.94243979    -0.15900
F944        F  0.22750141  0.98441016  0.89942683    -0.13600
C945        C  0.10017857  0.97929801  0.97380921     0.24400
C946        C  0.08625657  0.95767861  0.94774998    -0.23700
C947        C  0.04996159  0.96004080  0.94347076     0.19400
C948        C  0.02900074  0.97851090  0.96701160     0.24400
C949        C  0.04289360  0.99857089  0.99446757    -0.23600
C950        C  0.07952173  0.00047038  0.99502292     0.19300
F951        F  0.09665839  0.02391626  0.01445904    -0.13600
F952        F  0.13468115  0.98079431  0.97864435    -0.15900
F953        F  0.99442163  0.97650338  0.96270451    -0.15900
F954        F  0.03391833  0.94597478  0.91581372    -0.13600
C955        C  0.85723971  0.85860812  0.09264165     0.24400
C956        C  0.85190231  0.86125102  0.05713993    -0.23700
C957        C  0.87080215  0.88600944  0.03848368     0.19400
C958        C  0.89548749  0.90716563  0.05499770     0.24400
C959        C  0.90261511  0.90342985  0.09088918    -0.23600
C960        C  0.88161370  0.87929947  0.10925944     0.19300
F961        F  0.88569356  0.87426859  0.14364022    -0.13600
F962        F  0.83883737  0.83544236  0.11149234    -0.15900
F963        F  0.91105946  0.93179530  0.03559321    -0.15900
F964        F  0.86545152  0.88967547  0.00406094    -0.13600
C965        C  0.85688744  0.98470825  0.14806705     0.24400
C966        C  0.85679437  0.97763382  0.18365442    -0.23700
C967        C  0.88124972  0.95403463  0.19637933     0.19400
C968        C  0.90502431  0.93777714  0.17455309     0.24400
C969        C  0.90652226  0.94535933  0.13847745    -0.23600
C970        C  0.88091345  0.96870729  0.12593200     0.19300
F971        F  0.87889815  0.97592497  0.09169248    -0.13600
F972        F  0.83372168  0.00729379  0.13446407    -0.15900
F973        F  0.92319097  0.91166311  0.18923521    -0.15900
F974        F  0.88056744  0.94408779  0.22998807    -0.13600
C975        C  0.99865023  0.89068109  0.17685190     0.24400
C976        C  0.99509207  0.85436331  0.17411968    -0.23700
C977        C  0.97610840  0.84140286  0.14609084     0.19400
C978        C  0.95832713  0.86371873  0.12383002     0.24400
C979        C  0.95654599  0.90008955  0.13020599    -0.23600
C980        C  0.98054855  0.91320549  0.15452102     0.19300
F981        F  0.98362960  0.94795331  0.15931038    -0.13600
F982        F  0.01904571  0.90455758  0.20166037    -0.15900
F983        F  0.94352173  0.84896108  0.09576034    -0.15900
F984        F  0.97317302  0.80675789  0.14068534    -0.13600
C985        C  0.95533918  0.98680161  0.09297531     0.24400
C986        C  0.95306860  0.95016279  0.08864897    -0.23700
C987        C  0.97584417  0.93589237  0.06371520     0.19400
C988        C  0.99765566  0.95666402  0.04314503     0.24400
C989        C  0.99618385  0.99360804  0.04413998    -0.23600
C990        C  0.97484028  0.00776729  0.07040869     0.19300
F991        F  0.97302377  0.04268245  0.07479295    -0.13600
F992        F  0.94039963  0.00321790  0.12003063    -0.15900
F993        F  0.02098947  0.93949740  0.02357117    -0.15900
F994        F  0.97757816  0.90100873  0.05929656    -0.13600
C995        C  0.85399908  0.09067461  0.85999320     0.24400
C996        C  0.85741470  0.05541749  0.85242648    -0.23700
C997        C  0.88529760  0.03707541  0.86675276     0.19400
C998        C  0.90778514  0.05311279  0.89052600     0.24400
C999        C  0.90292579  0.08832896  0.90058134    -0.23600
C1000       C  0.87679346  0.10708126  0.88253219     0.19300
F1001       F  0.87157775  0.14138985  0.88830402    -0.13600
F1002       F  0.82842929  0.10961242  0.84520595    -0.15900
F1003       F  0.93484073  0.03419712  0.90218732    -0.15900
F1004       F  0.89055589  0.00335591  0.85805160    -0.13600
C1005       C  0.86549786  0.11824659  0.95904391     0.24400
C1006       C  0.90125138  0.12542232  0.95623064    -0.23700
C1007       C  0.91435264  0.15000249  0.98006750     0.19400
C1008       C  0.89195603  0.17302718  0.99748960     0.24400
C1009       C  0.85594750  0.17056692  0.99329453    -0.23600
C1010       C  0.84324535  0.14125527  0.97580494     0.19300
F1011       F  0.80901322  0.13531278  0.97293799    -0.13600
F1012       F  0.85124017  0.08925179  0.94532376    -0.15900
F1013       F  0.90567308  0.19848461  0.01732367    -0.15900
F1014       F  0.94879973  0.15489535  0.98293287    -0.13600
C1015       C  0.96714431  0.12438842  0.87872627     0.24400
C1016       C  0.94437678  0.13597615  0.90514936    -0.23700
C1017       C  0.93595481  0.17214702  0.90454894     0.19400
C1018       C  0.95077386  0.19488149  0.88064945     0.24400
C1019       C  0.97334063  0.18291211  0.85503939    -0.23600
C1020       C  0.98140273  0.14735678  0.85442158     0.19300
F1021       F  0.00322893  0.13457575  0.83018379    -0.13600
F1022       F  0.97528766  0.09022737  0.87595050    -0.15900
F1023       F  0.94034738  0.22855088  0.88093846    -0.15900
F1024       F  0.91027957  0.18605090  0.92368617    -0.13600
C1025       C  0.93678890  0.05695916  0.97045950     0.24400
C1026       C  0.95059554  0.08398031  0.94986948    -0.23700
C1027       C  0.98683495  0.08872378  0.95264866     0.19400
C1028       C  0.00764579  0.06649549  0.97292027     0.24400
C1029       C  0.99345580  0.04133032  0.99557920    -0.23600
C1030       C  0.95728445  0.03622644  0.99235544     0.19300
F1031       F  0.94095722  0.00971150  0.00838748    -0.13600
F1032       F  0.90266121  0.04989301  0.96919989    -0.15900
F1033       F  0.04219855  0.07164784  0.97237347    -0.15900
F1034       F  0.00287399  0.11603602  0.93771921    -0.13600
C1035       C  0.18559068  0.16935138  0.08966977     0.24400
C1036       C  0.18699868  0.16854895  0.05370822    -0.23700
C1037       C  0.16605412  0.14489158  0.03597113     0.19400
C1038       C  0.14258322  0.12357962  0.05390421     0.24400
C1039       C  0.13833904  0.12661190  0.09030870    -0.23600
C1040       C  0.16206358  0.14882760  0.10769096     0.19300
F1041       F  0.16095845  0.15286919  0.14242866    -0.13600
F1042       F  0.20642474  0.19114543  0.10753725    -0.15900
F1043       F  0.12492694  0.09990771  0.03516299    -0.15900
F1044       F  0.16819891  0.14249573  0.00108764    -0.13600
C1045       C  0.15650004  0.07776773  0.19791598     0.24400
C1046       C  0.18053984  0.05352105  0.18577545    -0.23700
C1047       C  0.18065964  0.04566678  0.15038418     0.19400
C1048       C  0.15732631  0.06184097  0.12769317     0.24400
C1049       C  0.13239199  0.08624133  0.13953711    -0.23600
C1050       C  0.13351390  0.09429525  0.17556333     0.19300
F1051       F  0.11603093  0.12119104  0.18968153    -0.13600
F1052       F  0.15704721  0.08816421  0.23140293    -0.15900
F1053       F  0.15953157  0.05399640  0.09360027    -0.15900
F1054       F  0.20344204  0.02222705  0.13756556    -0.13600
C1055       C  0.06943604  0.19370943  0.14629482     0.24400
C1056       C  0.04770794  0.18160008  0.17258033    -0.23700
C1057       C  0.04151606  0.14566872  0.17455543     0.19400
C1058       C  0.05957738  0.12228209  0.15332681     0.24400
C1059       C  0.08551177  0.13404529  0.13034014    -0.23600
C1060       C  0.08680642  0.17058130  0.12461453     0.19300
F1061       F  0.10373885  0.18481373  0.09750498    -0.13600
F1062       F  0.07523297  0.22816134  0.14206439    -0.15900
F1063       F  0.05405416  0.08778733  0.15769161    -0.15900
F1064       F  0.01846241  0.13295721  0.19759655    -0.13600
C1065       C  0.06046502  0.02693378  0.07186569     0.24400
C1066       C  0.03925298  0.04259936  0.04630643    -0.23700
C1067       C  0.03780882  0.07948410  0.04766311     0.19400
C1068       C  0.06175160  0.09889556  0.06681951     0.24400
C1069       C  0.08537424  0.08319802  0.09002609    -0.23600
C1070       C  0.08173541  0.04661054  0.09398806     0.19300
F1071       F  0.09736992  0.02902997  0.11988282    -0.13600
F1072       F  0.06130354  0.99185922  0.07516080    -0.15900
F1073       F  0.06094847  0.13390875  0.06309623    -0.15900
F1074       F  0.01208124  0.09777954  0.03263576    -0.13600
loop_ 
_geom_bond_atom_site_label_1 
_geom_bond_atom_site_label_2 
_geom_bond_distance 
_geom_bond_site_symmetry_2 
_ccdc_geom_bond_type 
C1         C1039   1.579       .  S
C1         C1049   1.582       .  S
C1         C1059   1.576       .  S
C1         C1069   1.590       .  S
C2          C999   1.580       .  S
C2         C1006   1.578       .  S
C2         C1016   1.582       .  S
C2         C1026   1.590       .  S
C3          C959   1.581       .  S
C3          C969   1.584       .  S
C3          C979   1.580       .  S
C3          C986   1.592       .  S
C4          C916   1.583       .  S
C4          C926   1.578       .  S
C4          C939   1.576       .  S
C4          C946   1.588       .  S
C5          C949   1.595   1_544  S
C5          C989   1.594   1_445  S
C5         C1029   1.595   1_454  S
C5         C1066   1.596       .  S
N6            N7   1.320       .  A
N6           C10   1.351       .  A
N6          Cu14   2.093       .  S
N7            C8   1.338       .  A
N7          Cu13   2.035       .  S
C8            C9   1.374       .  A
C8           H11   1.082       .  S
C9           C10   1.390       .  A
C9          C215   1.465       .  S
C10          H12   1.082       .  S
Cu13         N16   2.035       .  S
Cu14         N24   2.096       .  S
Cu15         N17   2.089       .  S
Cu15         N23   2.092       .  S
N16          N17   1.319       .  A
N16          C20   1.338       .  A
N17          C18   1.351       .  A
C18          C19   1.390       .  A
C18          H21   1.082       .  S
C19          C20   1.375       .  A
C19         C312   1.466       .  S
C20          H22   1.082       .  S
N23          N24   1.327       .  A
N23          C27   1.345       .  A
N24          C25   1.350       .  A
C25          C26   1.384       .  A
C25          H28   1.082       .  S
C26          C27   1.382       .  A
C26         C906   1.477       .  S
C27          H29   1.082       .  S
N30          N31   1.319       .  A
N30          C34   1.353       .  A
N30         Cu38   2.103       .  S
N31          C32   1.339       .  A
N31         Cu37   2.036       .  S
C32          C33   1.376       .  A
C32          H35   1.082       .  S
C33          C34   1.394       .  A
C33         C326   1.474       .  S
C34          H36   1.082       .  S
Cu37         N40   2.036       .  S
Cu38         N48   2.107       .  S
Cu39         N41   2.122       .  S
Cu39         N47   2.124       .  S
N40          N41   1.321       .  A
N40          C44   1.338       .  A
N41          C42   1.356       .  A
C42          C43   1.397       .  A
C42          H45   1.082       .  S
C43          C44   1.374       .  A
C43         C112   1.477       .  S
C44          H46   1.082       .  S
N47          N48   1.327       .  A
N47          C51   1.354       .  A
N48          C49   1.347       .  A
C49          C50   1.392       .  A
C49          H52   1.080       .  S
C50          C51   1.395       .  A
C50         C896   1.507       .  S
C51          H53   1.082       .  S
N54          N55   1.321       .  A
N54          C58   1.353       .  A
N54         Cu62   2.096       .  S
N55          C56   1.337       .  A
N55         Cu61   2.041       .  S
C56          C57   1.375       .  A
C56          H59   1.082       .  S
C57          C58   1.391       .  A
C57         C528   1.470       .  S
C58          H60   1.082       .  S
Cu61         N64   2.043       .  S
Cu62         N72   2.099       .  S
Cu63         N65   2.110       .  S
Cu63         N71   2.113       .  S
N64          N65   1.320       .  A
N64          C68   1.341       .  A
N65          C66   1.353       .  A
C66          C67   1.393       .  A
C66          H69   1.082       .  S
C67          C68   1.377       .  A
C67         C113   1.475       .  S
C68          H70   1.081       .  S
N71          N72   1.327       .  A
N71          C75   1.349       .  A
N72          C73   1.351       .  A
C73          C74   1.385       .  A
C73          H76   1.082       .  S
C74          C75   1.388       .  A
C74         C886   1.485       .  S
C75          H77   1.082       .  S
N78          N79   1.320       .  A
N78          C82   1.352       .  A
N78         Cu86   2.100       .  S
N79          C80   1.338       .  A
N79         Cu85   2.038       .  S
C80          C81   1.375       .  A
C80          H83   1.082       .  S
C81          C82   1.392       .  A
C81         C426   1.470       .  S
C82          H84   1.082       .  S
Cu85         N88   2.039       .  S
Cu86         N96   2.103       .  S
Cu87         N89   2.095       .  S
Cu87         N95   2.097       .  S
N88          N89   1.320       .  A
N88          C92   1.339       .  A
N89          C90   1.350       .  A
C90          C91   1.390       .  A
C90          H93   1.082       .  S
C91          C92   1.375       .  A
C91         C129   1.467       .  S
C92          H94   1.081       .  S
N95          N96   1.326       .  A
N95          C99   1.350       .  A
N96          C97   1.346       .  A
C97          C98   1.389       .  A
C97         H100   1.081       .  S
C98          C99   1.388       .  A
C98         C876   1.494       .  S
C99         H101   1.082       .  S
O102       Cu110   2.015   1_556  S
O102        C112   1.281       .  A
O103       Cu110   2.016       .  S
O103        C113   1.280       .  A
O104       Cu110   2.026       .  S
O104        C114   1.277       .  A
O105       Cu110   2.028       .  S
O105        C115   1.278       .  A
O106       Cu111   2.010       .  S
O106        C115   1.279       .  A
O107       Cu111   2.008       .  S
O107        C114   1.280       .  A
O108       Cu111   2.023       .  S
O108        C113   1.277       .  A
O109       Cu111   2.027   1_556  S
O109        C112   1.277       .  A
Cu110      Cu111   2.374       .  S
C114        C133   1.475       .  S
C115        C405   1.475       .  S
O116       Cu124   2.026       .  S
O116        C126   1.277       .  A
O117       Cu124   2.025       .  S
O117        C127   1.277       .  A
O118       Cu124   2.008   1_556  S
O118        C128   1.280       .  A
O119       Cu124   2.008       .  S
O119        C129   1.279       .  A
O120       Cu125   2.010       .  S
O120        C129   1.276       .  A
O121       Cu125   2.013   1_556  S
O121        C128   1.275       .  A
O122       Cu125   2.005       .  S
O122        C127   1.279       .  A
O123       Cu125   2.008       .  S
O123        C126   1.279       .  A
Cu124      Cu125   2.376       .  S
C126        C143   1.474       .  S
C127        C495   1.473       .  S
C128        C167   1.469       .  S
N130        N131   1.320   1_554  A
N130        C134   1.356       .  A
N130       Cu138   2.116       .  S
N131        C132   1.337       .  A
N131       Cu137   2.034       .  S
C132        C133   1.374   1_556  A
C132        H135   1.081       .  S
C133        C134   1.396       .  A
C134        H136   1.082       .  S
Cu137       N140   2.034   1_556  S
Cu138       N148   2.120       .  S
Cu139       N141   2.110       .  S
Cu139       N147   2.114       .  S
N140        N141   1.319       .  A
N140        C144   1.338   1_554  A
N141        C142   1.355       .  A
C142        C143   1.395       .  A
C142        H145   1.083       .  S
C143        C144   1.376   1_554  A
C144        H146   1.080       .  S
N147        N148   1.329       .  A
N147        C151   1.349       .  A
N148        C149   1.353       .  A
C149        C150   1.389       .  A
C149        H152   1.082       .  S
C150        C151   1.386       .  A
C150        C956   1.489       .  S
C151        H153   1.082       .  S
N154        N155   1.319       .  A
N154        C158   1.351       .  A
N154       Cu162   2.088       .  S
N155        C156   1.337       .  A
N155       Cu161   2.033       .  S
C156        C157   1.374       .  A
C156        H159   1.082       .  S
C157        C158   1.390       .  A
C157        C228   1.465       .  S
C158        H160   1.082       .  S
Cu161       N164   2.033       .  S
Cu162       N172   2.091       .  S
Cu163       N165   2.098       .  S
Cu163       N171   2.101       .  S
N164        N165   1.319       .  A
N164        C168   1.338       .  A
N165        C166   1.352       .  A
C166        C167   1.392       .  A
C166        H169   1.082       .  S
C167        C168   1.374       .  A
C168        H170   1.082       .  S
N171        N172   1.327       .  A
N171        C175   1.346       .  A
N172        C173   1.347       .  A
C173        C174   1.385       .  A
C173        H176   1.081       .  S
C174        C175   1.388       .  A
C174        C866   1.489       .  S
C175        H177   1.082       .  S
N178        N179   1.320       .  A
N178        C182   1.351       .  A
N178       Cu186   2.099       .  S
N179        C180   1.339       .  A
N179       Cu185   2.034       .  S
C180        C181   1.374       .  A
C180        H183   1.082       .  S
C181        C182   1.391       .  A
C181        C588   1.468       .  S
C182        H184   1.082       .  S
Cu185       N188   2.033       .  S
Cu186       N196   2.101       .  S
Cu187       N189   2.085       .  S
Cu187       N195   2.089       .  S
N188        N189   1.319       .  A
N188        C192   1.338       .  A
N189        C190   1.349       .  A
C190        C191   1.388       .  A
C190        H193   1.082       .  S
C191        C192   1.374       .  A
C191        C214   1.462       .  S
C192        H194   1.082       .  S
N195        N196   1.326       .  A
N195        C199   1.345       .  A
N196        C197   1.350       .  A
C197        C198   1.389       .  A
C197        H200   1.082       .  S
C198        C199   1.387       .  A
C198        C856   1.492       .  S
C199        H201   1.081       .  S
O202       Cu210   2.001       .  S
O202        C212   1.274       .  A
O203       Cu210   1.999       .  S
O203        C213   1.274       .  A
O204       Cu210   2.003       .  S
O204        C214   1.279       .  A
O205       Cu210   2.005   1_655  S
O205        C215   1.279       .  A
O206       Cu211   2.007   1_655  S
O206        C215   1.275       .  A
O207       Cu211   2.004       .  S
O207        C214   1.275       .  A
O208       Cu211   2.019       .  S
O208        C213   1.281       .  A
O209       Cu211   2.017       .  S
O209        C212   1.281       .  A
Cu210      Cu211   2.378       .  S
C212        C433   1.466       .  S
C213        C233   1.466       .  S
O216       Cu224   2.013       .  S
O216        C226   1.276       .  A
O217       Cu224   2.014       .  S
O217        C227   1.276       .  A
O218       Cu224   1.999   1_655  S
O218        C228   1.278       .  A
O219       Cu224   1.998       .  S
O219        C229   1.279       .  A
O220       Cu225   2.016       .  S
O220        C229   1.276       .  A
O221       Cu225   2.013   1_655  S
O221        C228   1.276       .  A
O222       Cu225   2.009       .  S
O222        C227   1.280       .  A
O223       Cu225   2.011       .  S
O223        C226   1.280       .  A
Cu224      Cu225   2.377       .  S
C226        C643   1.470       .  S
C227        C243   1.469       .  S
C229        C257   1.467       .  S
N230        N231   1.320   1_455  A
N230        C234   1.350       .  A
N230       Cu238   2.098       .  S
N231        C232   1.340       .  A
N231       Cu237   2.032       .  S
C232        C233   1.374   1_655  A
C232        H235   1.081       .  S
C233        C234   1.391       .  A
C234        H236   1.082       .  S
Cu237       N240   2.031       .  S
Cu238       N248   2.101       .  S
Cu239       N241   2.105       .  S
Cu239       N247   2.108       .  S
N240        N241   1.320   1_655  A
N240        C244   1.338       .  A
N241        C242   1.353       .  A
C242        C243   1.392       .  A
C242        H245   1.082       .  S
C243        C244   1.373   1_455  A
C244        H246   1.082       .  S
N247        N248   1.326       .  A
N247        C251   1.350       .  A
N248        C249   1.348       .  A
C249        C250   1.390       .  A
C249        H252   1.082       .  S
C250        C251   1.390       .  A
C250        C919   1.498       .  S
C251        H253   1.081       .  S
N254        N255   1.319       .  A
N254        C258   1.352       .  A
N254       Cu262   2.094       .  S
N255        C256   1.336       .  A
N255       Cu261   2.028       .  S
C256        C257   1.373       .  A
C256        H259   1.082       .  S
C257        C258   1.392       .  A
C258        H260   1.082       .  S
Cu261       N264   2.029       .  S
Cu262       N272   2.098       .  S
Cu263       N265   2.109       .  S
Cu263       N271   2.114       .  S
N264        N265   1.319       .  A
N264        C268   1.338       .  A
N265        C266   1.354       .  A
C266        C267   1.395       .  A
C266        H269   1.082       .  S
C267        C268   1.373       .  A
C267        C388   1.471       .  S
C268        H270   1.082       .  S
N271        N272   1.328       .  A
N271        C275   1.349       .  A
N272        C273   1.349       .  A
C273        C274   1.383       .  A
C273        H276   1.082       .  S
C274        C275   1.387       .  A
C274        C846   1.483       .  S
C275        H277   1.082       .  S
N278        N279   1.320       .  A
N278        C282   1.353       .  A
N278       Cu286   2.105       .  S
N279        C280   1.337       .  A
N279       Cu285   2.033       .  S
C280        C281   1.373       .  A
C280        H283   1.082       .  S
C281        C282   1.393       .  A
C281        C628   1.469       .  S
C282        H284   1.082       .  S
Cu285       N288   2.032       .  S
Cu286       N296   2.108       .  S
Cu287       N289   2.098       .  S
Cu287       N295   2.102       .  S
N288        N289   1.319       .  A
N288        C292   1.338       .  A
N289        C290   1.352       .  A
C290        C291   1.393       .  A
C290        H293   1.082       .  S
C291        C292   1.375       .  A
C291        C313   1.470       .  S
C292        H294   1.082       .  S
N295        N296   1.327       .  A
N295        C299   1.346       .  A
N296        C297   1.351       .  A
C297        C298   1.390       .  A
C297        H300   1.083       .  S
C298        C299   1.390       .  A
C298        C836   1.498       .  S
C299        H301   1.082       .  S
O302       Cu310   2.000   1_565  S
O302        C312   1.278       .  A
O303       Cu310   2.005       .  S
O303        C313   1.279       .  A
O304       Cu310   2.012       .  S
O304        C314   1.275   1_545  A
O305       Cu310   2.010       .  S
O305        C315   1.275       .  A
O306       Cu311   2.008       .  S
O306        C315   1.279       .  A
O307       Cu311   2.005       .  S
O307        C314   1.280   1_545  A
O308       Cu311   2.016       .  S
O308        C313   1.276       .  A
O309       Cu311   2.014   1_565  S
O309        C312   1.276       .  A
Cu310      Cu311   2.377       .  S
C314        C343   1.468       .  S
C315        C533   1.467       .  S
O316       Cu324   2.015   1_565  S
O316        C326   1.280       .  A
O317       Cu324   2.008       .  S
O317        C327   1.280       .  A
O318       Cu324   2.015       .  S
O318        C328   1.276       .  A
O319       Cu324   2.019       .  S
O319        C329   1.276       .  A
O320       Cu325   2.026       .  S
O320        C329   1.282       .  A
O321       Cu325   2.023       .  S
O321        C328   1.281       .  A
O322       Cu325   2.017       .  S
O322        C327   1.276       .  A
O323       Cu325   2.020   1_565  S
O323        C326   1.276       .  A
Cu324      Cu325   2.375       .  S
C327        C357   1.470       .  S
C328        C605   1.475       .  S
C329        C333   1.477       .  S
N330        N331   1.320   1_545  A
N330        C334   1.356       .  A
N330       Cu338   2.125       .  S
N331        C332   1.340       .  A
N331       Cu337   2.032       .  S
C332        C333   1.374   1_565  A
C332        H335   1.082       .  S
C333        C334   1.398       .  A
C334        H336   1.082       .  S
Cu337       N340   2.031       .  S
Cu338       N348   2.128       .  S
Cu339       N341   2.096   1_545  S
Cu339       N347   2.100       .  S
N340        N341   1.320       .  A
N340        C344   1.336       .  A
N341        C342   1.352   1_565  A
C342        C343   1.393   1_545  A
C342        H345   1.076       .  S
C343        C344   1.372       .  A
C344        H346   1.094       .  S
N347        N348   1.329       .  A
N347        C351   1.351       .  A
N348        C349   1.351       .  A
C349        C350   1.390       .  A
C349        H352   1.082       .  S
C350        C351   1.384       .  A
C350        C996   1.490       .  S
C351        H353   1.082       .  S
N354        N355   1.320       .  A
N354        C358   1.354       .  A
N354       Cu362   2.110       .  S
N355        C356   1.337       .  A
N355       Cu361   2.031       .  S
C356        C357   1.373       .  A
C356        H359   1.082       .  S
C357        C358   1.394       .  A
C358        H360   1.082       .  S
Cu361       N364   2.031       .  S
Cu362       N372   2.113       .  S
Cu363       N365   2.105       .  S
Cu363       N371   2.109       .  S
N364        N365   1.319       .  A
N364        C368   1.338       .  A
N365        C366   1.354       .  A
C366        C367   1.395       .  A
C366        H369   1.082       .  S
C367        C368   1.375       .  A
C367        C488   1.472       .  S
C368        H370   1.082       .  S
N371        N372   1.327       .  A
N371        C375   1.347       .  A
N372        C373   1.352       .  A
C373        C374   1.392       .  A
C373        H376   1.082       .  S
C374        C375   1.392       .  A
C374        C826   1.503       .  S
C375        H377   1.080       .  S
O378       Cu386   2.014   1_556  S
O378        C388   1.281       .  A
O379       Cu386   2.012       .  S
O379        C389   1.280       .  A
O380       Cu386   2.021       .  S
O380        C390   1.276       .  A
O381       Cu386   2.024       .  S
O381        C391   1.276       .  A
O382       Cu387   2.009       .  S
O382        C391   1.280       .  A
O383       Cu387   2.010       .  S
O383        C390   1.280       .  A
O384       Cu387   2.010       .  S
O384        C389   1.275       .  A
O385       Cu387   2.013   1_556  S
O385        C388   1.275       .  A
Cu386      Cu387   2.375       .  S
C389        C457   1.469       .  S
C390        C395   1.473       .  S
C391        C729   1.474       .  S
N392        N393   1.321       .  A
N392        C396   1.354       .  A
N392       Cu400   2.111       .  S
N393        C394   1.339       .  A
N393       Cu399   2.041       .  S
C394        C395   1.375       .  A
C394        H397   1.082       .  S
C395        C396   1.393       .  A
C396        H398   1.082       .  S
Cu399       N402   2.042       .  S
Cu400       N410   2.113       .  S
Cu401       N403   2.105       .  S
Cu401       N409   2.108       .  S
N402        N403   1.320       .  A
N402        C406   1.340       .  A
N403        C404   1.354       .  A
C404        C405   1.393       .  A
C404        H407   1.082       .  S
C405        C406   1.377       .  A
C406        H408   1.082       .  S
N409        N410   1.328       .  A
N409        C413   1.348   1_554  A
N410        C411   1.353   1_554  A
C411        C412   1.388       .  A
C411        H414   1.081       .  S
C412        C413   1.385       .  A
C412        C929   1.488       .  S
C413        H415   1.081       .  S
O416       Cu424   2.018   1_655  S
O416        C426   1.276       .  A
O417       Cu424   2.017       .  S
O417        C427   1.276       .  A
O418       Cu424   2.020       .  S
O418        C428   1.281       .  A
O419       Cu424   2.020       .  S
O419        C429   1.281       .  A
O420       Cu425   2.005       .  S
O420        C429   1.274       .  A
O421       Cu425   2.003       .  S
O421        C428   1.274       .  A
O422       Cu425   2.005       .  S
O422        C427   1.280       .  A
O423       Cu425   2.007   1_655  S
O423        C426   1.279       .  A
Cu424      Cu425   2.376       .  S
C427        C467   1.469       .  S
C428        C443   1.469       .  S
C429        C691   1.470       .  S
N430        N431   1.321       .  A
N430        C434   1.351       .  A
N430       Cu438   2.104       .  S
N431        C432   1.339       .  A
N431       Cu437   2.031       .  S
C432        C433   1.373       .  A
C432        H435   1.082       .  S
C433        C434   1.391       .  A
C434        H436   1.082       .  S
Cu437       N440   2.031       .  S
Cu438       N448   2.107       .  S
Cu439       N441   2.101       .  S
Cu439       N447   2.104       .  S
N440        N441   1.320       .  A
N440        C444   1.340       .  A
N441        C442   1.351       .  A
C442        C443   1.391       .  A
C442        H445   1.082       .  S
C443        C444   1.375       .  A
C444        H446   1.082       .  S
N447        N448   1.325       .  A
N447        C451   1.347       .  A
N448        C449   1.352       .  A
C449        C450   1.392       .  A
C449        H452   1.082       .  S
C450        C451   1.392       .  A
C450        C976   1.503   1_455  S
C451        H453   1.081       .  S
N454        N455   1.318       .  A
N454        C458   1.352       .  A
N454       Cu462   2.101       .  S
N455        C456   1.338       .  A
N455       Cu461   2.028       .  S
C456        C457   1.374       .  A
C456        H459   1.082       .  S
C457        C458   1.393       .  A
C458        H460   1.082       .  S
Cu461       N464   2.027       .  S
Cu462       N472   2.105       .  S
Cu463       N465   2.106       .  S
Cu463       N471   2.109       .  S
N464        N465   1.320       .  A
N464        C468   1.336       .  A
N465        C466   1.354       .  A
C466        C467   1.394       .  A
C466        H469   1.082       .  S
C467        C468   1.373       .  A
C468        H470   1.082       .  S
N471        N472   1.326       .  A
N471        C475   1.350       .  A
N472        C473   1.346       .  A
C473        C474   1.392       .  A
C473        H476   1.079       .  S
C474        C475   1.393       .  A
C474        C816   1.503       .  S
C475        H477   1.081       .  S
O478       Cu486   2.010   1_556  S
O478        C488   1.280       .  A
O479       Cu486   2.008       .  S
O479        C489   1.279       .  A
O480       Cu486   2.013       .  S
O480        C490   1.275       .  A
O481       Cu486   2.013       .  S
O481        C491   1.276       .  A
O482       Cu487   2.014       .  S
O482        C491   1.280       .  A
O483       Cu487   2.015       .  S
O483        C490   1.280       .  A
O484       Cu487   2.016       .  S
O484        C489   1.276       .  A
O485       Cu487   2.019   1_556  S
O485        C488   1.276       .  A
Cu486      Cu487   2.376       .  S
C489        C567   1.470       .  S
C490        C739   1.471       .  S
C491        C505   1.471       .  S
N492        N493   1.321       .  A
N492        C496   1.355       .  A
N492       Cu500   2.113       .  S
N493        C494   1.337       .  A
N493       Cu499   2.034       .  S
C494        C495   1.373       .  A
C494        H497   1.082       .  S
C495        C496   1.395       .  A
C496        H498   1.082       .  S
Cu499       N502   2.034       .  S
Cu500       N510   2.116       .  S
Cu501       N503   2.099       .  S
Cu501       N509   2.103       .  S
N502        N503   1.318       .  A
N502        C506   1.339       .  A
N503        C504   1.352       .  A
C504        C505   1.393       .  A
C504        H507   1.082       .  S
C505        C506   1.376       .  A
C506        H508   1.082       .  S
N509        N510   1.326       .  A
N509        C513   1.345       .  A
N510        C511   1.353       .  A
C511        C512   1.395       .  A
C511        H514   1.082       .  S
C512        C513   1.391       .  A
C512       C1009   1.505   1_554  S
C513        H515   1.080       .  S
O516       Cu524   2.012       .  S
O516        C526   1.281       .  A
O517       Cu524   2.015       .  S
O517        C527   1.280       .  A
O518       Cu524   2.024   1_565  S
O518        C528   1.277       .  A
O519       Cu524   2.026       .  S
O519        C529   1.277       .  A
O520       Cu525   1.998       .  S
O520        C529   1.279       .  A
O521       Cu525   1.999   1_565  S
O521        C528   1.278       .  A
O522       Cu525   2.010       .  S
O522        C527   1.275       .  A
O523       Cu525   2.008       .  S
O523        C526   1.275       .  A
Cu524      Cu525   2.376       .  S
C526        C543   1.469       .  S
C527        C715   1.470       .  S
C529        C557   1.472       .  S
N530        N531   1.319       .  A
N530        C534   1.351       .  A
N530       Cu538   2.095       .  S
N531        C532   1.338       .  A
N531       Cu537   2.030       .  S
C532        C533   1.375       .  A
C532        H535   1.082       .  S
C533        C534   1.391       .  A
C534        H536   1.082       .  S
Cu537       N540   2.029       .  S
Cu538       N548   2.098       .  S
Cu539       N541   2.110       .  S
Cu539       N547   2.113       .  S
N540        N541   1.321       .  A
N540        C544   1.338       .  A
N541        C542   1.353       .  A
C542        C543   1.393       .  A
C542        H545   1.082       .  S
C543        C544   1.372       .  A
C544        H546   1.082       .  S
N547        N548   1.326       .  A
N547        C551   1.353       .  A
N548        C549   1.345   1_545  A
C549        C550   1.388       .  A
C549        H552   1.081       .  S
C550        C551   1.393   1_565  A
C550        C966   1.499       .  S
C551        H553   1.082   1_545  S
N554        N555   1.319       .  A
N554        C558   1.355       .  A
N554       Cu562   2.107       .  S
N555        C556   1.336       .  A
N555       Cu561   2.031       .  S
C556        C557   1.374       .  A
C556        H559   1.082       .  S
C557        C558   1.395       .  A
C558        H560   1.082       .  S
Cu561       N564   2.032       .  S
Cu562       N572   2.112       .  S
Cu563       N565   2.102       .  S
Cu563       N571   2.106       .  S
N564        N565   1.319       .  A
N564        C568   1.338       .  A
N565        C566   1.352       .  A
C566        C567   1.393       .  A
C566        H569   1.082       .  S
C567        C568   1.375       .  A
C568        H570   1.081       .  S
N571        N572   1.329       .  A
N571        C575   1.351       .  A
N572        C573   1.349       .  A
C573        C574   1.385       .  A
C573        H576   1.082       .  S
C574        C575   1.385       .  A
C574        C806   1.484       .  S
C575        H577   1.082       .  S
O578       Cu586   2.011   1_565  S
O578        C588   1.275       .  A
O579       Cu586   2.012       .  S
O579        C589   1.276       .  A
O580       Cu586   1.994       .  S
O580        C590   1.278       .  A
O581       Cu586   1.996       .  S
O581        C591   1.278       .  A
O582       Cu587   2.012       .  S
O582        C591   1.276       .  A
O583       Cu587   2.010       .  S
O583        C590   1.275       .  A
O584       Cu587   2.008       .  S
O584        C589   1.280       .  A
O585       Cu587   2.009   1_565  S
O585        C588   1.280       .  A
Cu586      Cu587   2.378       .  S
C589        C657   1.468       .  S
C590        C595   1.462       .  S
C591        C705   1.464   1_545  S
N592        N593   1.320       .  A
N592        C596   1.351       .  A
N592       Cu600   2.090       .  S
N593        C594   1.335       .  A
N593       Cu599   2.032       .  S
C594        C595   1.372       .  A
C594        H597   1.082       .  S
C595        C596   1.389       .  A
C596        H598   1.082       .  S
Cu599       N602   2.034       .  S
Cu600       N610   2.093       .  S
Cu601       N603   2.109       .  S
Cu601       N609   2.111       .  S
N602        N603   1.319       .  A
N602        C606   1.341       .  A
N603        C604   1.353       .  A
C604        C605   1.394       .  A
C604        H607   1.082       .  S
C605        C606   1.376       .  A
C606        H608   1.082       .  S
N609        N610   1.325       .  A
N609        C613   1.347       .  A
N610        C611   1.349       .  A
C611        C612   1.389       .  A
C611        H614   1.082       .  S
C612        C613   1.394       .  A
C612        C936   1.499       .  S
C613        H615   1.080       .  S
O616       Cu624   2.014       .  S
O616        C626   1.276       .  A
O617       Cu624   2.018       .  S
O617        C627   1.276       .  A
O618       Cu624   2.005   1_655  S
O618        C628   1.279       .  A
O619       Cu624   2.007       .  S
O619        C629   1.280       .  A
O620       Cu625   2.017       .  S
O620        C629   1.276       .  A
O621       Cu625   2.016   1_655  S
O621        C628   1.276       .  A
O622       Cu625   2.005       .  S
O622        C627   1.279       .  A
O623       Cu625   2.000       .  S
O623        C626   1.279       .  A
Cu624      Cu625   2.376       .  S
C626        C681   1.466       .  S
C627        C633   1.470       .  S
C629        C667   1.470       .  S
N630        N631   1.320       .  A
N630        C634   1.353       .  A
N630       Cu638   2.105       .  S
N631        C632   1.337       .  A
N631       Cu637   2.035       .  S
C632        C633   1.374       .  A
C632        H635   1.081       .  S
C633        C634   1.393       .  A
C634        H636   1.082       .  S
Cu637       N640   2.036       .  S
Cu638       N648   2.108       .  S
Cu639       N641   2.097       .  S
Cu639       N647   2.100       .  S
N640        N641   1.319       .  A
N640        C644   1.339       .  A
N641        C642   1.351       .  A
C642        C643   1.392       .  A
C642        H645   1.082       .  S
C643        C644   1.376       .  A
C644        H646   1.082       .  S
N647        N648   1.327       .  A
N647        C651   1.346   1_455  A
N648        C649   1.351   1_455  A
C649        C650   1.390       .  A
C649        H652   1.081       .  S
C650        C651   1.388       .  A
C650       C1019   1.496       .  S
C651        H653   1.083       .  S
N654        N655   1.319       .  A
N654        C658   1.352       .  A
N654       Cu662   2.098       .  S
N655        C656   1.338       .  A
N655       Cu661   2.032       .  S
C656        C657   1.374       .  A
C656        H659   1.081       .  S
C657        C658   1.392       .  A
C658        H660   1.082       .  S
Cu661       N664   2.032       .  S
Cu662       N672   2.102       .  S
Cu663       N665   2.102       .  S
Cu663       N671   2.105       .  S
N664        N665   1.320       .  A
N664        C668   1.337       .  A
N665        C666   1.353       .  A
C666        C667   1.393       .  A
C666        H669   1.082       .  S
C667        C668   1.374       .  A
C668        H670   1.081       .  S
N671        N672   1.327       .  A
N671        C675   1.350       .  A
N672        C673   1.346       .  A
C673        C674   1.389       .  A
C673        H676   1.081       .  S
C674        C675   1.390       .  A
C674        C799   1.497       .  S
C675        H677   1.081       .  S
N678        N679   1.320   1_455  A
N678        C682   1.351       .  A
N678       Cu686   2.092       .  S
N679        C680   1.337       .  A
N679       Cu685   2.035       .  S
C680        C681   1.374   1_655  A
C680        H683   1.082       .  S
C681        C682   1.390       .  A
C682        H684   1.082       .  S
Cu685       N688   2.035       .  S
Cu686       N696   2.094       .  S
Cu687       N689   2.099   1_455  S
Cu687       N695   2.102       .  S
N688        N689   1.320       .  A
N688        C692   1.340       .  A
N689        C690   1.351   1_655  A
C690        C691   1.392       .  A
C690        H693   1.082       .  S
C691        C692   1.375   1_455  A
C692        H694   1.082       .  S
N695        N696   1.326       .  A
N695        C699   1.347       .  A
N696        C697   1.348       .  A
C697        C698   1.388       .  A
C697        H700   1.082       .  S
C698        C699   1.390       .  A
C698       C1056   1.494       .  S
C699        H701   1.081       .  S
N702        N703   1.319   1_545  A
N702        C706   1.350       .  A
N702       Cu710   2.086       .  S
N703        C704   1.337       .  A
N703       Cu709   2.035       .  S
C704        C705   1.375       .  A
C704        H707   1.082       .  S
C705        C706   1.389   1_565  A
C706        H708   1.082       .  S
Cu709       N712   2.036       .  S
Cu710       N720   2.090       .  S
Cu711       N713   2.103       .  S
Cu711       N719   2.105       .  S
N712        N713   1.321   1_565  A
N712        C716   1.340       .  A
N713        C714   1.351       .  A
C714        C715   1.392       .  A
C714        H717   1.082       .  S
C715        C716   1.375   1_545  A
C716        H718   1.082       .  S
N719        N720   1.326       .  A
N719        C723   1.351       .  A
N720        C721   1.344       .  A
C721        C722   1.387       .  A
C721        H724   1.082       .  S
C722        C723   1.390       .  A
C722       C1046   1.493       .  S
C723        H725   1.082       .  S
N726        N727   1.319   1_554  A
N726        C730   1.356       .  A
N726       Cu734   2.113       .  S
N727        C728   1.336       .  A
N727       Cu733   2.030       .  S
C728        C729   1.373   1_556  A
C728        H731   1.082       .  S
C729        C730   1.397       .  A
C730        H732   1.082       .  S
Cu733       N736   2.031       .  S
Cu734       N744   2.117       .  S
Cu735       N737   2.104       .  S
Cu735       N743   2.108       .  S
N736        N737   1.319   1_556  A
N736        C740   1.339       .  A
N737        C738   1.352       .  A
C738        C739   1.394       .  A
C738        H741   1.082       .  S
C739        C740   1.375   1_554  A
C740        H742   1.081       .  S
N743        N744   1.329       .  A
N743        C747   1.351       .  A
N744        C745   1.350       .  A
C745        C746   1.387       .  A
C745        H748   1.082       .  S
C746        C747   1.385       .  A
C746       C1036   1.485       .  S
C747        H749   1.082       .  S
C750        C786   1.584       .  S
C750        C796   1.579       .  S
C750        C829   1.579       .  S
C750        C849   1.576       .  S
C751        C776   1.592       .  S
C751        C809   1.577       .  S
C751        C839   1.578       .  S
C751        C879   1.583       .  S
C752        C766   1.586       .  S
C752        C869   1.580       .  S
C752        C899   1.578       .  S
C752        C909   1.575       .  S
C753        C756   1.590       .  S
C753        C819   1.575       .  S
C753        C859   1.581       .  S
C753        C889   1.576       .  S
C754        C759   1.592       .  S
C754        C769   1.587       .  S
C754        C779   1.597       .  S
C754        C789   1.592       .  S
C755        C756   1.420       .  A
C755        C760   1.412       .  A
C755        F762   1.355       .  S
C756        C757   1.423       .  A
C757        C758   1.410       .  A
C757        F764   1.354       .  S
C758        C759   1.422       .  A
C758        F763   1.356       .  S
C759        C760   1.424       .  A
C760        F761   1.353       .  S
C765        C766   1.419       .  A
C765        C770   1.410       .  A
C765        F772   1.356       .  S
C766        C767   1.424       .  A
C767        C768   1.411       .  A
C767        F774   1.355       .  S
C768        C769   1.419       .  A
C768        F773   1.358       .  S
C769        C770   1.423       .  A
C770        F771   1.355       .  S
C775        C776   1.419       .  A
C775        C780   1.410       .  A
C775        F782   1.356       .  S
C776        C777   1.426       .  A
C777        C778   1.415       .  A
C777        F784   1.354       .  S
C778        C779   1.421       .  A
C778        F783   1.357       .  S
C779        C780   1.424       .  A
C780        F781   1.354       .  S
C785        C786   1.416       .  A
C785        C790   1.404       .  A
C785        F792   1.356       .  S
C786        C787   1.425       .  A
C787        C788   1.413       .  A
C787        F794   1.354       .  S
C788        C789   1.418       .  A
C788        F793   1.358       .  S
C789        C790   1.426       .  A
C790        F791   1.356       .  S
C795        C796   1.429       .  A
C795        C800   1.398       .  A
C795        F802   1.353       .  S
C796        C797   1.424       .  A
C797        C798   1.407       .  A
C797        F804   1.357       .  S
C798        C799   1.406       .  A
C798        F803   1.357       .  S
C799        C800   1.403       .  A
C800        F801   1.358       .  S
C805        C806   1.404       .  A
C805        C810   1.412       .  A
C805        F812   1.357       .  S
C806        C807   1.394       .  A
C807        C808   1.396       .  A
C807        F814   1.359       .  S
C808        C809   1.428       .  A
C808        F813   1.356       .  S
C809        C810   1.424       .  A
C810        F811   1.355       .  S
C815        C816   1.413       .  A
C815        C820   1.410       .  A
C815        F822   1.357       .  S
C816        C817   1.407       .  A
C817        C818   1.397       .  A
C817        F824   1.355       .  S
C818        C819   1.423       .  A
C818        F823   1.357       .  S
C819        C820   1.417       .  A
C820        F821   1.357       .  S
C825        C826   1.407       .  A
C825        C830   1.399       .  A
C825        F832   1.356       .  S
C826        C827   1.411       .  A
C827        C828   1.411       .  A
C827        F834   1.357       .  S
C828        C829   1.419       .  A
C828        F833   1.357       .  S
C829        C830   1.424       .  A
C830        F831   1.357       .  S
C835        C836   1.405       .  A
C835        C840   1.397       .  A
C835        F842   1.357       .  S
C836        C837   1.410       .  A
C837        C838   1.411       .  A
C837        F844   1.357       .  S
C838        C839   1.419       .  A
C838        F843   1.357       .  S
C839        C840   1.425       .  A
C840        F841   1.357       .  S
C845        C846   1.396       .  A
C845        C850   1.396       .  A
C845        F852   1.358       .  S
C846        C847   1.404       .  A
C847        C848   1.410       .  A
C847        F854   1.358       .  S
C848        C849   1.425       .  A
C848        F853   1.356       .  S
C849        C850   1.426       .  A
C850        F851   1.355       .  S
C855        C856   1.401       .  A
C855        C860   1.398       .  A
C855        F862   1.358       .  S
C856        C857   1.404       .  A
C857        C858   1.406       .  A
C857        F864   1.357       .  S
C858        C859   1.424       .  A
C858        F863   1.357       .  S
C859        C860   1.430       .  A
C860        F861   1.354       .  S
C865        C866   1.399       .  A
C865        C870   1.397       .  A
C865        F872   1.358       .  S
C866        C867   1.404       .  A
C867        C868   1.405       .  A
C867        F874   1.358       .  S
C868        C869   1.425       .  A
C868        F873   1.357       .  S
C869        C870   1.430       .  A
C870        F871   1.353       .  S
C875        C876   1.405       .  A
C875        C880   1.407       .  A
C875        F882   1.357       .  S
C876        C877   1.400       .  A
C877        C878   1.398       .  A
C877        F884   1.358       .  S
C878        C879   1.430       .  A
C878        F883   1.352       .  S
C879        C880   1.425       .  A
C880        F881   1.358       .  S
C885        C886   1.406       .  A
C885        C890   1.413       .  A
C885        F892   1.357       .  S
C886        C887   1.394       .  A
C887        C888   1.394       .  A
C887        F894   1.359       .  S
C888        C889   1.428       .  A
C888        F893   1.355       .  S
C889        C890   1.424       .  A
C890        F891   1.355       .  S
C895        C896   1.413       .  A
C895        C900   1.413       .  A
C895        F902   1.357       .  S
C896        C897   1.408       .  A
C897        C898   1.399       .  A
C897        F904   1.356       .  S
C898        C899   1.422       .  A
C898        F903   1.357       .  S
C899        C900   1.419       .  A
C900        F901   1.358       .  S
C905        C906   1.394       .  A
C905        C910   1.394       .  A
C905        F912   1.359       .  S
C906        C907   1.401       .  A
C907        C908   1.408       .  A
C907        F914   1.358       .  S
C908        C909   1.426       .  A
C908        F913   1.355       .  S
C909        C910   1.427       .  A
C910        F911   1.355       .  S
C915        C916   1.431       .  A
C915        C920   1.401       .  A
C915        F922   1.354       .  S
C916        C917   1.424       .  A
C917        C918   1.406       .  A
C917        F924   1.357       .  S
C918        C919   1.405       .  A
C918        F923   1.357       .  S
C919        C920   1.402       .  A
C920        F921   1.358       .  S
C925        C926   1.426       .  A
C925        C930   1.413       .  A
C925        F932   1.355       .  S
C926        C927   1.427       .  A
C927        C928   1.397       .  A
C927        F934   1.356       .  S
C928        C929   1.396       .  A
C928        F933   1.358       .  S
C929        C930   1.405       .  A
C930        F931   1.357   1_556  S
C935        C936   1.411       .  A
C935        C940   1.410   1_545  A
C935        F942   1.357       .  S
C936        C937   1.405   1_545  A
C937        C938   1.398       .  A
C937        F944   1.356       .  S
C938        C939   1.424       .  A
C938        F943   1.357       .  S
C939        C940   1.419       .  A
C940        F941   1.358       .  S
C945        C946   1.418       .  A
C945        C950   1.408   1_565  A
C945        F952   1.356       .  S
C946        C947   1.423       .  A
C947        C948   1.414       .  A
C947        F954   1.354       .  S
C948        C949   1.423       .  A
C948        F953   1.357   1_455  S
C949        C950   1.426   1_565  A
C950        F951   1.353   1_556  S
C955        C956   1.395       .  A
C955        C960   1.398       .  A
C955        F962   1.358       .  S
C956        C957   1.406       .  A
C957        C958   1.414       .  A
C957        F964   1.357       .  S
C958        C959   1.425       .  A
C958        F963   1.355       .  S
C959        C960   1.429       .  A
C960        F961   1.356       .  S
C965        C966   1.406       .  A
C965        C970   1.409       .  A
C965        F972   1.357   1_565  S
C966        C967   1.403       .  A
C967        C968   1.399       .  A
C967        F974   1.358       .  S
C968        C969   1.429       .  A
C968        F973   1.353       .  S
C969        C970   1.425       .  A
C970        F971   1.358       .  S
C975        C976   1.411       .  A
C975        C980   1.412       .  A
C975        F982   1.357   1_655  S
C976        C977   1.406       .  A
C977        C978   1.399       .  A
C977        F984   1.356       .  S
C978        C979   1.425       .  A
C978        F983   1.357       .  S
C979        C980   1.420       .  A
C980        F981   1.357       .  S
C985        C986   1.425       .  A
C985        C990   1.412   1_565  A
C985        F992   1.354   1_565  S
C986        C987   1.420       .  A
C987        C988   1.413       .  A
C987        F994   1.357       .  S
C988        C989   1.425       .  A
C988        F993   1.353   1_655  S
C989        C990   1.421   1_565  A
C990        F991   1.358       .  S
C995        C996   1.396       .  A
C995       C1000   1.397       .  A
C995       F1002   1.358       .  S
C996        C997   1.407       .  A
C997        C998   1.414       .  A
C997       F1004   1.357       .  S
C998        C999   1.424       .  A
C998       F1003   1.356       .  S
C999       C1000   1.428       .  A
C1000      F1001   1.355       .  S
C1005      C1006   1.422       .  A
C1005      C1010   1.397       .  A
C1005      F1012   1.357       .  S
C1006      C1007   1.419       .  A
C1007      C1008   1.413       .  A
C1007      F1014   1.357       .  S
C1008      C1009   1.413       .  A
C1008      F1013   1.357   1_556  S
C1009      C1010   1.408       .  A
C1010      F1011   1.355       .  S
C1015      C1016   1.424       .  A
C1015      C1020   1.407       .  A
C1015      F1022   1.357       .  S
C1016      C1017   1.431       .  A
C1017      C1018   1.400       .  A
C1017      F1024   1.353       .  S
C1018      C1019   1.402       .  A
C1018      F1023   1.358       .  S
C1019      C1020   1.405       .  A
C1020      F1021   1.357   1_655  S
C1025      C1026   1.418       .  A
C1025      C1030   1.410       .  A
C1025      F1032   1.356       .  S
C1026      C1027   1.425       .  A
C1027      C1028   1.415   1_655  A
C1027      F1034   1.354   1_655  S
C1028      C1029   1.420   1_455  A
C1028      F1033   1.358       .  S
C1029      C1030   1.426       .  A
C1030      F1031   1.355   1_556  S
C1035      C1036   1.395       .  A
C1035      C1040   1.397       .  A
C1035      F1042   1.358       .  S
C1036      C1037   1.404       .  A
C1037      C1038   1.412       .  A
C1037      F1044   1.357       .  S
C1038      C1039   1.425       .  A
C1038      F1043   1.355       .  S
C1039      C1040   1.429       .  A
C1040      F1041   1.356       .  S
C1045      C1046   1.401       .  A
C1045      C1050   1.397       .  A
C1045      F1052   1.358       .  S
C1046      C1047   1.404       .  A
C1047      C1048   1.408       .  A
C1047      F1054   1.357       .  S
C1048      C1049   1.424       .  A
C1048      F1053   1.358       .  S
C1049      C1050   1.431       .  A
C1050      F1051   1.353       .  S
C1055      C1056   1.404       .  A
C1055      C1060   1.397       .  A
C1055      F1062   1.357       .  S
C1056      C1057   1.408       .  A
C1057      C1058   1.406       .  A
C1057      F1064   1.357       .  S
C1058      C1059   1.420       .  A
C1058      F1063   1.357       .  S
C1059      C1060   1.426       .  A
C1060      F1061   1.356       .  S
C1065      C1066   1.422       .  A
C1065      C1070   1.413       .  A
C1065      F1072   1.358   1_545  S
C1066      C1067   1.423       .  A
C1067      C1068   1.408       .  A
C1067      F1074   1.354       .  S
C1068      C1069   1.420       .  A
C1068      F1073   1.357       .  S
C1069      C1070   1.426       .  A
C1070      F1071   1.354       .  S
