geometry optimzed in LAMMPS
_audit_creation_date              2020-11-30 
_audit_creation_method            'lammps2cif' 
_symmetry_space_group_name_H-M    'P1' 
_symmetry_Int_Tables_number       1 
_symmetry_cell_setting            triclinic 
loop_ 
_symmetry_equiv_pos_as_xyz 
  x,y,z 
_cell_length_a                    25.95756617 
_cell_length_b                    26.071977405842066 
_cell_length_c                    26.15316328961715 
_cell_angle_alpha                 90.09310908276477 
_cell_angle_beta                  90.19567499152426 
_cell_angle_gamma                 89.86108844236992 
loop_ 
_atom_site_label 
_atom_site_type_symbol 
_atom_site_fract_x 
_atom_site_fract_y 
_atom_site_fract_z 
_atom_site_charge 
C1          C  0.84389284  0.77530905  0.83465710     0.82000
N2          N  0.86389328  0.79912177  0.79314004    -0.76300
C3          C  0.84264143  0.84347294  0.77534269     0.84500
N4          N  0.80102325  0.86371160  0.79979546    -0.76200
C5          C  0.78083937  0.84006433  0.84140702     0.84600
N6          N  0.80217083  0.79567707  0.85816552    -0.78000
C7          C  0.83253345  0.54854142  0.27042104     0.82000
N8          N  0.79097414  0.52909944  0.29518053    -0.76300
C9          C  0.77194780  0.55294191  0.33735229     0.84500
N10         N  0.79461969  0.59658361  0.35447918    -0.76200
C11         C  0.83609997  0.61637733  0.33014678     0.84600
N12         N  0.85466194  0.59233612  0.28800708    -0.78000
Zn13       Zn  0.92496394  0.38099920  0.90813710     1.49700
Zn14       Zn  0.88128665  0.48077335  0.96046095     1.49400
Zn15       Zn  0.98109313  0.42756992  0.00528153     1.49100
Zn16       Zn  0.98887603  0.48736775  0.89874686     1.49500
O17         O  0.94434120  0.44446469  0.94276014    -1.82300
O18         O  0.84769300  0.37143895  0.90384448    -0.73000
O19         O  0.87313592  0.48801770  0.03654289    -0.72800
O20         O  0.99123060  0.35170008  0.01257111    -0.72300
O21         O  0.81817269  0.44542711  0.93402786    -0.73000
O22         O  0.95584563  0.31899674  0.94235032    -0.72600
O23         O  0.94473722  0.45329406  0.06795338    -0.73200
O24         O  0.05953591  0.50042129  0.93153484    -0.72600
O25         O  0.88143221  0.55039098  0.92916254    -0.73300
O26         O  0.05056375  0.45948390  0.00499545    -0.72700
O27         O  0.95501160  0.55651846  0.88631660    -0.73200
O28         O  0.99851442  0.45300372  0.82939965    -0.73100
O29         O  0.95165309  0.38238488  0.83685356    -0.72900
C30         C  0.81053308  0.40176679  0.91378871     0.78900
C31         C  0.90180644  0.47597939  0.07422673     0.79400
C32         C  0.98027096  0.31352206  0.98424953     0.78400
C33         C  0.07738976  0.48676100  0.97496898     0.78700
C34         C  0.91200410  0.57532163  0.90059747     0.79900
C35         C  0.98044982  0.41155634  0.81055862     0.78900
C36         C  0.54558649  0.34501724  0.78150245     0.82000
N37         N  0.58898640  0.36290616  0.80427405    -0.76300
C38         C  0.60744866  0.34081798  0.84752292     0.84500
N39         N  0.58239293  0.29985669  0.86735394    -0.76200
C40         C  0.53882324  0.28137890  0.84508997     0.84600
N41         N  0.52073730  0.30421237  0.80196079    -0.78000
Zn42       Zn  0.40345157  0.98759453  0.90029714     1.49700
Zn43       Zn  0.41025575  0.92565668  0.00550503     1.49400
Zn44       Zn  0.46825235  0.88341270  0.90723146     1.49100
Zn45       Zn  0.50942444  0.98349811  0.96293773     1.49500
O46         O  0.44777660  0.94515879  0.94398612    -1.82300
O47         O  0.33362945  0.99731482  0.93181404    -0.73000
O48         O  0.40706488  0.84927920  0.01211095    -0.72800
O49         O  0.43963491  0.88373992  0.83629113    -0.72300
O50         O  0.33733488  0.95144502  0.00325016    -0.73000
O51         O  0.39316002  0.95508984  0.83129484    -0.72600
O52         O  0.44297052  0.81900718  0.94121753    -0.73200
O53         O  0.57495932  0.95013829  0.93729356    -0.72600
O54         O  0.44354281  0.95400696  0.06928305    -0.73300
O55         O  0.54496969  0.87892261  0.90159294    -0.72700
O56         O  0.51447636  0.99028166  0.03906732    -0.73200
O57         O  0.50611935  0.05468836  0.93463106    -0.73100
O58         O  0.43353807  0.05783866  0.88964916    -0.72900
C59         C  0.31281709  0.98023400  0.97232320     0.78900
C60         C  0.42003635  0.81193292  0.98350111     0.79400
C61         C  0.41027070  0.91388272  0.81141454     0.78400
C62         C  0.58240621  0.90780730  0.91410877     0.78700
C63         C  0.48561185  0.97801192  0.07631997     0.79900
C64         C  0.47438058  0.07898742  0.90642506     0.78900
C65         C  0.05653578  0.04932523  0.11292591     0.82000
N66         N  0.09728389  0.02844195  0.08788980    -0.76300
C67         C  0.11527508  0.04997484  0.04418940     0.84500
N68         N  0.09239921  0.09315706  0.02601089    -0.76200
C69         C  0.05187573  0.11466418  0.05071402     0.84600
N70         N  0.03418942  0.09259259  0.09422976    -0.78000
C71         C  0.27541281  0.83253576  0.55224971     0.82000
N72         N  0.29734267  0.85833304  0.59188959    -0.76300
C73         C  0.34082252  0.84018393  0.61478799     0.84500
N74         N  0.36215475  0.79592672  0.59736920    -0.76200
C75         C  0.34068620  0.77029223  0.55772134     0.84600
N76         N  0.29695706  0.78813146  0.53576257    -0.78000
Zn77       Zn  0.96263908  0.87970874  0.47831622     1.49700
Zn78       Zn  0.90261623  0.98642269  0.48579086     1.49400
Zn79       Zn  0.01037240  0.97809337  0.42483453     1.49100
Zn80       Zn  0.91088597  0.92724881  0.37847922     1.49500
O81         O  0.94646311  0.94298153  0.44210225    -1.82300
O82         O  0.93352391  0.88050310  0.54940378    -0.73000
O83         O  0.93595990  0.05538763  0.49626046    -0.72800
O84         O  0.07219201  0.94210520  0.45389489    -0.72300
O85         O  0.89087510  0.95418963  0.55527189    -0.73000
O86         O  0.03899265  0.87098517  0.48647386    -0.72600
O87         O  0.00933375  0.04880890  0.45352989    -0.73200
O88         O  0.94736619  0.95511148  0.31665390    -0.72600
O89         O  0.83325273  0.99974537  0.45296073    -0.73300
O90         O  0.02027758  0.98563159  0.34881445    -0.72700
O91         O  0.84119264  0.95932306  0.37866373    -0.73200
O92         O  0.90204005  0.85127162  0.36955801    -0.71900
O93         O  0.93419695  0.81819890  0.44118573    -0.72900
C94         C  0.90612107  0.91201467  0.57477006     0.78900
C95         C  0.97812857  0.07467310  0.48071788     0.79400
C96         C  0.07753902  0.89932835  0.47661904     0.78400
C97         C  0.99092000  0.97651867  0.31083995     0.78700
C98         C  0.81531433  0.98699601  0.40940321     0.79900
C99         C  0.91192040  0.81292115  0.39804303     0.78900
C100        C  0.55129249  0.04773964  0.27538251     0.82000
N101        N  0.59596616  0.03133306  0.29677458    -0.76300
C102        C  0.61526648  0.05436763  0.33919293     0.84500
N103        N  0.58988026  0.09491079  0.35991727    -0.76200
C104        C  0.54520296  0.11213625  0.33853740     0.84600
N105        N  0.52620199  0.08832632  0.29625547    -0.78000
C106        C  0.10978901  0.33898256  0.54731134     0.82000
N107        N  0.08823081  0.36057721  0.58947839    -0.76300
C108        C  0.04485439  0.34062410  0.61029171     0.84500
N109        N  0.02341802  0.29837891  0.58858690    -0.76200
C110        C  0.04438870  0.27624488  0.54648688     0.84600
N111        N  0.08774124  0.29682505  0.52633216    -0.78000
C112        C  0.34369162  0.61744660  0.05384216     0.82000
N113        N  0.36098996  0.59665980  0.09820033    -0.76300
C114        C  0.33665318  0.55647296  0.12009114     0.84500
N115        N  0.29426926  0.53704843  0.09676740    -0.76200
C116        C  0.27596542  0.55703416  0.05226371     0.84600
N117        N  0.30093010  0.59758573  0.03094988    -0.78000
Zn118      Zn  0.50752905  0.40434513  0.46554077     1.49700
Zn119      Zn  0.40788586  0.45768975  0.50977585     1.49400
Zn120      Zn  0.46353728  0.50611211  0.41553596     1.49100
Zn121      Zn  0.40006827  0.40091730  0.40234577     1.49500
O122        O  0.44482839  0.44177910  0.44775803    -1.82300
O123        O  0.51476208  0.39645774  0.54186696    -0.73000
O124        O  0.39786319  0.53242974  0.51952655    -0.72800
O125        O  0.53962444  0.51172006  0.40686222    -0.72300
O126        O  0.44285828  0.43108077  0.57187689    -0.73000
O127        O  0.57154220  0.43937330  0.43859393    -0.72600
O128        O  0.43932197  0.56769922  0.45478900    -0.73200
O129        O  0.38752353  0.43863223  0.33583982    -0.72600
O130        O  0.33878369  0.42729002  0.50858417    -0.73300
O131        O  0.43126629  0.51079234  0.34651471    -0.72700
O132        O  0.33007808  0.38680812  0.43474651    -0.73200
O133        O  0.43359798  0.33232366  0.38742047    -0.73100
O134        O  0.50454050  0.33384682  0.43549855    -0.72900
C135        C  0.48538911  0.40808752  0.57904449     0.78900
C136        C  0.41236168  0.57177355  0.49505669     0.79400
C137        C  0.57769695  0.48258502  0.41681553     0.78400
C138        C  0.40227272  0.48223234  0.31952437     0.78700
C139        C  0.31212003  0.40042635  0.47801792     0.79900
C140        C  0.47417529  0.31081455  0.40486225     0.78900
C141        C  0.33328481  0.49113016  0.19121322     0.25400
C142        C  0.35398110  0.53664679  0.17071597    -0.22700
C143        C  0.39048709  0.56395244  0.20004413     0.20300
C144        C  0.40595035  0.54629386  0.24799381     0.25300
C145        C  0.38553736  0.50064208  0.26833107    -0.22700
C146        C  0.34876385  0.47346132  0.23936635     0.20200
F147        F  0.32704239  0.42990734  0.25767740    -0.12600
F148        F  0.29804789  0.46318452  0.16482316    -0.15000
F149        F  0.44107997  0.57449114  0.27437952    -0.15000
F150        F  0.41112654  0.60853480  0.18310728    -0.12600
C151        C  0.24400965  0.39440455  0.54531662     0.25400
C152        C  0.25961545  0.38523938  0.49441851    -0.22700
C153        C  0.22451094  0.36197122  0.46043649     0.20300
C154        C  0.17525501  0.34805430  0.47713163     0.25300
C155        C  0.16008926  0.35716277  0.52808352    -0.22700
C156        C  0.19502249  0.38076414  0.56175045     0.20200
F157        F  0.18286488  0.38884656  0.61158876    -0.12600
F158        F  0.27650770  0.41554885  0.58024017    -0.15000
F159        F  0.14231967  0.32600689  0.44321402    -0.15000
F160        F  0.23756101  0.35269573  0.41104081    -0.12600
C161        C  0.49486504  0.19300335  0.32291429     0.25400
C162        C  0.52136786  0.16033152  0.35706095    -0.22700
C163        C  0.52839293  0.17623745  0.40802881     0.20300
C164        C  0.51157077  0.22462031  0.42385814     0.25300
C165        C  0.48713012  0.25799024  0.38917468    -0.22700
C166        C  0.47781351  0.24130568  0.33892176     0.20200
F167        F  0.45499077  0.27292596  0.30435138    -0.12600
F168        F  0.48804100  0.17971778  0.27312696    -0.15000
F169        F  0.51927875  0.23891591  0.47324958    -0.15000
F170        F  0.55190821  0.14513083  0.44260053    -0.12600
C171        C  0.96546938  0.15410366  0.53386937     0.25400
C172        C  0.99185551  0.12801776  0.49473233    -0.22700
C173        C  0.03271453  0.15303348  0.46983855     0.20300
C174        C  0.04846186  0.20172127  0.48532496     0.25300
C175        C  0.02375304  0.22701421  0.52622552    -0.22700
C176        C  0.98112047  0.20295451  0.54938005     0.20200
F177        F  0.95486138  0.22585602  0.58798413    -0.12600
F178        F  0.92535888  0.13187805  0.55851644    -0.15000
F179        F  0.08883300  0.22326093  0.46051058    -0.15000
F180        F  0.05809821  0.13037999  0.43044291    -0.12600
C181        C  0.75362977  0.01064535  0.34018071     0.25400
C182        C  0.76406097  0.00557008  0.39276857    -0.22700
C183        C  0.72544346  0.01880310  0.42822503     0.20300
C184        C  0.67695407  0.03552855  0.41111692     0.25300
C185        C  0.66642161  0.03888176  0.35845311    -0.22700
C186        C  0.70548691  0.02705188  0.32332115     0.20200
F187        F  0.69767073  0.03287188  0.27231630    -0.12600
F188        F  0.79051281  0.00095718  0.30469937    -0.15000
F189        F  0.63990527  0.04688942  0.44588957    -0.15000
F190        F  0.73405528  0.01426122  0.47925642    -0.12600
C191        C  0.21526979  0.90245601  0.52483857     0.25400
C192        C  0.22602460  0.84991380  0.53030990    -0.22700
C193        C  0.18847290  0.81377879  0.51596447     0.20300
C194        C  0.14055039  0.82989778  0.49777630     0.25300
C195        C  0.12937454  0.88247120  0.49294185    -0.22700
C196        C  0.16749208  0.91863738  0.50593156     0.20200
F197        F  0.15797908  0.96972817  0.50210270    -0.12600
F198        F  0.25113262  0.93817059  0.53748834    -0.15000
F199        F  0.10507075  0.79389334  0.48485442    -0.15000
F200        F  0.19729935  0.76270156  0.52137228    -0.12600
C201        C  0.33378697  0.67612854  0.55795715     0.25400
C202        C  0.36060688  0.72010183  0.54314451    -0.22700
C203        C  0.40569266  0.71569667  0.51424380     0.20300
C204        C  0.42319434  0.66734727  0.49890320     0.25300
C205        C  0.39596826  0.62288721  0.51307644    -0.22700
C206        C  0.35140689  0.62781341  0.54340020     0.20200
F207        F  0.32379557  0.58607622  0.55772198    -0.12600
F208        F  0.29038442  0.68010121  0.58658149    -0.15000
F209        F  0.46676879  0.66409523  0.47049460    -0.15000
F210        F  0.43202115  0.75826020  0.50003978    -0.12600
C211        C  0.98718188  0.03146473  0.17696265     0.25400
C212        C  0.03918063  0.02775468  0.16228163    -0.22700
C213        C  0.07488842  0.00540994  0.19632729     0.20300
C214        C  0.05911879  0.98835353  0.24446878     0.25300
C215        C  0.00722961  0.99231853  0.25914994    -0.22700
C216        C  0.97129073  0.01348560  0.22472926     0.20200
F217        F  0.92105726  0.01876101  0.23814877    -0.12600
F218        F  0.95157839  0.05248253  0.14505716    -0.15000
F219        F  0.09463924  0.96774693  0.27671806    -0.15000
F220        F  0.12553943  0.00190067  0.18396704    -0.12600
C221        C  0.38999911  0.70012806  0.06899478     0.25400
C222        C  0.36810396  0.66478736  0.03435097    -0.22700
C223        C  0.36816472  0.67641866  0.98181622     0.20300
C224        C  0.38777516  0.72334416  0.96462317     0.25300
C225        C  0.40678595  0.75957168  0.99982027    -0.22700
C226        C  0.40895913  0.74695103  0.05187585     0.20200
F227        F  0.42882846  0.78045768  0.08650597    -0.12600
F228        F  0.39067134  0.69088851  0.12003380    -0.15000
F229        F  0.38568047  0.73441757  0.91394722    -0.15000
F230        F  0.34888604  0.64264656  0.94717574    -0.12600
C231        C  0.55441118  0.99623666  0.14050750     0.25400
C232        C  0.50170466  0.99232755  0.12864978    -0.22700
C233        C  0.46511498  0.00403575  0.16659978     0.20300
C234        C  0.48112844  0.02117045  0.21486943     0.25300
C235        C  0.53388741  0.02600167  0.22617878    -0.22700
C236        C  0.57031607  0.01255766  0.18877472     0.20200
F237        F  0.62155938  0.01745026  0.19792963    -0.12600
F238        F  0.59084109  0.98437694  0.10522962    -0.15000
F239        F  0.44510061  0.03304224  0.25053837    -0.15000
F240        F  0.41388836  0.00089056  0.15643168    -0.12600
C241        C  0.33179934  0.90030439  0.68981344     0.25400
C242        C  0.36146351  0.86453786  0.66195502    -0.22700
C243        C  0.40948187  0.84892753  0.68209946     0.20300
C244        C  0.42586689  0.86613885  0.72994521     0.25300
C245        C  0.39505390  0.89982342  0.75873806    -0.22700
C246        C  0.34848469  0.91775660  0.73761777     0.20200
F247        F  0.31753243  0.95011842  0.76433421    -0.12600
F248        F  0.28535939  0.91680144  0.67226084    -0.15000
F249        F  0.47193914  0.84931297  0.74821731    -0.15000
F250        F  0.44060944  0.81614833  0.65609269    -0.12600
C251        C  0.22644715  0.96185314  0.01023931     0.25400
C252        C  0.25971250  0.99576828  0.98492517    -0.22700
C253        C  0.24307522  0.04603145  0.97477697     0.20300
C254        C  0.19521576  0.06305680  0.99217079     0.25300
C255        C  0.16280120  0.02998085  0.01995167    -0.22700
C256        C  0.17831526  0.97869782  0.02739248     0.20200
F257        F  0.14714005  0.94486371  0.05164055    -0.12600
F258        F  0.24063875  0.91238286  0.01854286    -0.15000
F259        F  0.18225268  0.11292327  0.98433039    -0.15000
F260        F  0.27456628  0.07986967  0.95091460    -0.12600
C261        C  0.46726862  0.15435760  0.84713116     0.25400
C262        C  0.48574290  0.13282203  0.89295214    -0.22700
C263        C  0.51675884  0.16280176  0.92541143     0.20300
C264        C  0.53131098  0.21219771  0.91124002     0.25300
C265        C  0.51587750  0.23271776  0.86375315    -0.22700
C266        C  0.48213795  0.20376727  0.83261865     0.20200
F267        F  0.46518430  0.22195559  0.78692431    -0.12600
F268        F  0.43697386  0.12668702  0.81491895    -0.15000
F269        F  0.56132618  0.23946581  0.94401876    -0.15000
F270        F  0.53340891  0.14424023  0.97107397    -0.12600
C271        C  0.56740359  0.37650419  0.69438897     0.25400
C272        C  0.52980677  0.36493843  0.73119168    -0.22700
C273        C  0.47743980  0.36927630  0.71820743     0.20300
C274        C  0.46289599  0.38433879  0.66897113     0.25300
C275        C  0.50059538  0.39438580  0.63165746    -0.22700
C276        C  0.55293678  0.39069956  0.64499964     0.20200
F277        F  0.59027010  0.40100362  0.61027849    -0.12600
F278        F  0.61834551  0.37187304  0.70546189    -0.15000
F279        F  0.41192072  0.38737973  0.65740858    -0.15000
F280        F  0.44034317  0.35900525  0.75320235    -0.12600
C281        C  0.16213389  0.53356658  0.96183637     0.25400
C282        C  0.12968238  0.50308358  0.99243112    -0.22700
C283        C  0.14714496  0.48908017  0.04161665     0.20300
C284        C  0.19448243  0.50592118  0.06017548     0.25300
C285        C  0.22667449  0.53728264  0.03029184    -0.22700
C286        C  0.21007134  0.55042762  0.98052595     0.20200
F287        F  0.24006377  0.57958821  0.94970359    -0.12600
F288        F  0.14754391  0.54753804  0.91394009    -0.15000
F289        F  0.20757705  0.49233717  0.10859526    -0.15000
F290        F  0.11807842  0.45957766  0.07303118    -0.12600
C291        C  0.02110938  0.42824901  0.72442822     0.25400
C292        C  0.99375591  0.39560447  0.75753825    -0.22700
C293        C  0.98031716  0.34621612  0.73992984     0.20300
C294        C  0.99561951  0.32918448  0.69179206     0.25300
C295        C  0.02462356  0.36098235  0.65939613    -0.22700
C296        C  0.03639658  0.41110434  0.67595113     0.20200
F297        F  0.06282007  0.44371619  0.64532331    -0.12600
F298        F  0.03342956  0.47675851  0.73883030    -0.15000
F299        F  0.98382331  0.28031378  0.67825431    -0.15000
F300        F  0.95358153  0.31312237  0.76979174    -0.12600
C301        C  0.99475580  0.24841437  0.05252893     0.25400
C302        C  0.99644166  0.26184686  0.00058074    -0.22700
C303        C  0.01488411  0.22602591  0.96479492     0.20300
C304        C  0.03224748  0.17782991  0.98089438     0.25300
C305        C  0.03064679  0.16432189  0.03301658    -0.22700
C306        C  0.01126789  0.20003862  0.06857534     0.20200
F307        F  0.01013233  0.18909490  0.11929643    -0.12600
F308        F  0.97679837  0.28213509  0.08790091    -0.15000
F309        F  0.05064062  0.14446013  0.94541451    -0.15000
F310        F  0.01801132  0.23839092  0.91447240    -0.12600
C311        C  0.68984675  0.32266984  0.89503968     0.25400
C312        C  0.65752553  0.35763142  0.86906736    -0.22700
C313        C  0.67523501  0.40793345  0.86066401     0.20300
C314        C  0.72456012  0.42244117  0.87644356     0.25300
C315        C  0.75746322  0.38686338  0.90029801    -0.22700
C316        C  0.73956180  0.33706760  0.90998536     0.20200
F317        F  0.77015796  0.30237373  0.93415802    -0.12600
F318        F  0.67434525  0.27385408  0.90423424    -0.15000
F319        F  0.74102720  0.47076555  0.86632511    -0.15000
F320        F  0.64500363  0.44316523  0.83678661    -0.12600
C321        C  0.90329479  0.53046799  0.20793366     0.25400
C322        C  0.85140322  0.52482610  0.22250837    -0.22700
C323        C  0.81719524  0.49931497  0.18918130     0.20300
C324        C  0.83393982  0.48240667  0.14126081     0.25300
C325        C  0.88526384  0.48974684  0.12623361    -0.22700
C326        C  0.92012858  0.51266129  0.16041048     0.20200
F327        F  0.96997828  0.52016548  0.14676247    -0.12600
F328        F  0.93777539  0.55372927  0.23944699    -0.15000
F329        F  0.79993644  0.45894881  0.10937588    -0.15000
F330        F  0.76693710  0.49280183  0.20177218    -0.12600
C331        C  0.85883632  0.67802011  0.40005729     0.25400
C332        C  0.85876498  0.66528299  0.34775756    -0.22700
C333        C  0.87861338  0.70064753  0.31233201     0.20300
C334        C  0.89668876  0.74837753  0.32878733     0.25300
C335        C  0.89599808  0.76134493  0.38099554    -0.22700
C336        C  0.87769688  0.72540712  0.41655813     0.20200
F337        F  0.87602441  0.73693431  0.46718042    -0.12600
F338        F  0.84063355  0.64457217  0.43536284    -0.15000
F339        F  0.91495606  0.78193034  0.29359804    -0.15000
F340        F  0.87861205  0.69001003  0.26148262    -0.12600
C341        C  0.68793365  0.56941954  0.38066145     0.25400
C342        C  0.72438855  0.53418544  0.36185184    -0.22700
C343        C  0.71387718  0.48136336  0.36491377     0.20300
C344        C  0.66710427  0.46417479  0.38512820     0.25300
C345        C  0.62969252  0.49962796  0.40161485    -0.22700
C346        C  0.64105594  0.55233566  0.40010375     0.20200
F347        F  0.60647615  0.58759376  0.41708271    -0.12600
F348        F  0.69645673  0.62072124  0.37799506    -0.15000
F349        F  0.65755611  0.41301522  0.38638867    -0.15000
F350        F  0.74881403  0.44636329  0.34820224    -0.12600
C351        C  0.91529024  0.71455389  0.85802985     0.25400
C352        C  0.86257926  0.72434648  0.85037063    -0.22700
C353        C  0.82682246  0.68484029  0.85819702     0.20300
C354        C  0.84319058  0.63655184  0.87420667     0.25300
C355        C  0.89581179  0.62663386  0.88278946    -0.22700
C356        C  0.93185505  0.66596467  0.87426785     0.20200
F357        F  0.98277048  0.65790200  0.88327704    -0.12600
F358        F  0.95042226  0.75244775  0.85150210    -0.15000
F359        F  0.80746511  0.59903511  0.88004169    -0.15000
F360        F  0.77589812  0.69255682  0.84889490    -0.12600
C361        C  0.69437584  0.82246340  0.87844493     0.25400
C362        C  0.73208335  0.85828337  0.86414838    -0.22700
C363        C  0.72168993  0.91091895  0.87003095     0.20300
C364        C  0.67377799  0.92740491  0.88859489     0.25300
C365        C  0.63522769  0.89141219  0.90048905    -0.22700
C366        C  0.64653465  0.83881504  0.89619504     0.20200
F367        F  0.61098840  0.80288427  0.90880860    -0.12600
F368        F  0.70271949  0.77133791  0.87292885    -0.15000
F369        F  0.66445882  0.97849332  0.89287167    -0.15000
F370        F  0.75787805  0.94632386  0.85782045    -0.12600
C371        C  0.82806944  0.89679397  0.69613217     0.25400
C372        C  0.86089516  0.86582278  0.72630452    -0.22700
C373        C  0.91006935  0.85331484  0.70718399     0.20300
C374        C  0.92506444  0.86934389  0.65847034     0.25300
C375        C  0.89156773  0.89869042  0.62780517    -0.22700
C376        C  0.84340120  0.91320914  0.64756900     0.20200
F377        F  0.80986919  0.94102376  0.61879362    -0.12600
F378        F  0.77995186  0.90921350  0.71223149    -0.15000
F379        F  0.97264928  0.85621736  0.64134482    -0.15000
F380        F  0.94382128  0.82520706  0.73541707    -0.12600
loop_ 
_geom_bond_atom_site_label_1 
_geom_bond_atom_site_label_2 
_geom_bond_distance 
_geom_bond_site_symmetry_2 
_ccdc_geom_bond_type 
C1            N2   1.357       .  A
C1            N6   1.354       .  A
C1          C352   1.472       .  S
N2            C3   1.362       .  A
C3            N4   1.362       .  A
C3          C372   1.489       .  S
N4            C5   1.359       .  A
C5            N6   1.355       .  A
C5          C362   1.477       .  S
C7            N8   1.360       .  A
C7           N12   1.358       .  A
C7          C322   1.481       .  S
N8            C9   1.359       .  A
C9           N10   1.357       .  A
C9          C342   1.478       .  S
N10          C11   1.356       .  A
C11          N12   1.356       .  A
C11         C332   1.478       .  S
Zn13         O17   1.951       .  S
Zn13         O18   2.025       .  S
Zn13         O22   2.012       .  S
Zn13         O29   1.991       .  S
Zn14         O17   1.946       .  S
Zn14         O19   2.010   1_556  S
Zn14         O21   2.002       .  S
Zn14         O25   1.992       .  S
Zn15         O17   1.941   1_554  S
Zn15         O20   2.004       .  S
Zn15         O23   2.008       .  S
Zn15         O26   1.988   1_655  S
Zn16         O17   1.983       .  S
Zn16         O24   2.051   1_655  S
Zn16         O27   2.030       .  S
Zn16         O28   2.037       .  S
O18          C30   1.273       .  A
O19          C31   1.272       .  A
O20          C32   1.272   1_554  A
O21          C30   1.270       .  A
O22          C32   1.272       .  A
O23          C31   1.271       .  A
O24          C33   1.276       .  A
O25          C34   1.272       .  A
O26          C33   1.271   1_554  A
O27          C34   1.275       .  A
O28          C35   1.277       .  A
O29          C35   1.272       .  A
C30         C315   1.474       .  S
C31         C325   1.471       .  S
C32         C302   1.474   1_556  S
C33         C282   1.493       .  S
C34         C355   1.477       .  S
C35         C292   1.489       .  S
C36          N37   1.356       .  A
C36          N41   1.357       .  A
C36         C272   1.472       .  S
N37          C38   1.356       .  A
C38          N39   1.356       .  A
C38         C312   1.482       .  S
N39          C40   1.359       .  A
C40          N41   1.358       .  A
C40         C265   1.487       .  S
Zn42         O46   1.960       .  S
Zn42         O47   2.009       .  S
Zn42         O51   2.010       .  S
Zn42         O58   2.013   1_565  S
Zn43         O46   1.952   1_554  S
Zn43         O48   2.001       .  S
Zn43         O50   2.008       .  S
Zn43         O54   2.016       .  S
Zn44         O46   1.947       .  S
Zn44         O49   1.996       .  S
Zn44         O52   2.014       .  S
Zn44         O55   2.000       .  S
Zn45         O46   1.951       .  S
Zn45         O53   2.025       .  S
Zn45         O56   2.002   1_556  S
Zn45         O57   2.001   1_565  S
O47          C59   1.272       .  A
O48          C60   1.272   1_554  A
O49          C61   1.272       .  A
O50          C59   1.272   1_554  A
O51          C61   1.273       .  A
O52          C60   1.272       .  A
O53          C62   1.273       .  A
O54          C63   1.273       .  A
O55          C62   1.272       .  A
O56          C63   1.273       .  A
O57          C64   1.272       .  A
O58          C64   1.273       .  A
C59         C252   1.474       .  S
C60         C225   1.473       .  S
C61         C245   1.478       .  S
C62         C365   1.480       .  S
C63         C232   1.477       .  S
C64         C262   1.478       .  S
C65          N66   1.358       .  A
C65          N70   1.358       .  A
C65         C212   1.481       .  S
N66          C67   1.359       .  A
C67          N68   1.357       .  A
C67         C255   1.482       .  S
N68          C69   1.356       .  A
C69          N70   1.358       .  A
C69         C305   1.480       .  S
C71          N72   1.359       .  A
C71          N76   1.355       .  A
C71         C192   1.473       .  S
N72          C73   1.360       .  A
C73          N74   1.357       .  A
C73         C242   1.485       .  S
N74          C75   1.352       .  A
C75          N76   1.352       .  A
C75         C202   1.457       .  S
Zn77         O81   1.948       .  S
Zn77         O82   2.009       .  S
Zn77         O86   2.005   1_655  S
Zn77         O93   2.014       .  S
Zn78         O81   1.970       .  S
Zn78         O83   2.015   1_565  S
Zn78         O85   2.028       .  S
Zn78         O89   2.022       .  S
Zn79         O81   1.951   1_455  S
Zn79         O84   2.005       .  S
Zn79         O87   1.990   1_565  S
Zn79         O90   2.016       .  S
Zn80         O81   1.944       .  S
Zn80         O88   2.014       .  S
Zn80         O91   1.991       .  S
Zn80         O92   2.008       .  S
O82          C94   1.273       .  A
O83          C95   1.274       .  A
O84          C96   1.272       .  A
O85          C94   1.274       .  A
O86          C96   1.273       .  A
O87          C95   1.271   1_455  A
O88          C97   1.272       .  A
O89          C98   1.273       .  A
O90          C97   1.272   1_455  A
O91          C98   1.272       .  A
O92          C99   1.273       .  A
O93          C99   1.274       .  A
C94         C375   1.481       .  S
C95         C172   1.482       .  S
C96         C195   1.476       .  S
C97         C215   1.477   1_655  S
C98         C182   1.479   1_565  S
C99         C335   1.476       .  S
C100        N101   1.354       .  A
C100        N105   1.356       .  A
C100        C235   1.475       .  S
N101        C102   1.356       .  A
C102        N103   1.357       .  A
C102        C185   1.474       .  S
N103        C104   1.361       .  A
C104        N105   1.359       .  A
C104        C162   1.481       .  S
C106        N107   1.359       .  A
C106        N111   1.355       .  A
C106        C155   1.480       .  S
N107        C108   1.357       .  A
C108        N109   1.358       .  A
C108        C295   1.486       .  S
N109        C110   1.357       .  A
C110        N111   1.356       .  A
C110        C175   1.488       .  S
C112        N113   1.356       .  A
C112        N117   1.362       .  A
C112        C222   1.481       .  S
N113        C114   1.354       .  A
C114        N115   1.355       .  A
C114        C142   1.490       .  S
N115        C116   1.360       .  A
C116        N117   1.362       .  A
C116        C285   1.493       .  S
Zn118       O122   1.951       .  S
Zn118       O123   2.015       .  S
Zn118       O127   2.027       .  S
Zn118       O134   1.999       .  S
Zn119       O122   1.931       .  S
Zn119       O124   1.981       .  S
Zn119       O126   1.983       .  S
Zn119       O130   1.963       .  S
Zn120       O122   1.942       .  S
Zn120       O125   1.995       .  S
Zn120       O128   2.005       .  S
Zn120       O131   1.991       .  S
Zn121       O122   1.972       .  S
Zn121       O129   2.024       .  S
Zn121       O132   2.042       .  S
Zn121       O133   2.025       .  S
O123        C135   1.273       .  A
O124        C136   1.268       .  A
O125        C137   1.271       .  A
O126        C135   1.268       .  A
O127        C137   1.274       .  A
O128        C136   1.271       .  A
O129        C138   1.275       .  A
O130        C139   1.267       .  A
O131        C138   1.271       .  A
O132        C139   1.275       .  A
O133        C140   1.275       .  A
O134        C140   1.273       .  A
C135        C275   1.474       .  S
C136        C205   1.475       .  S
C137        C345   1.478       .  S
C138        C145   1.486       .  S
C139        C152   1.485       .  S
C140        C165   1.475       .  S
C141        C142   1.411       .  A
C141        C146   1.399       .  A
C141        F148   1.357       .  S
C142        C143   1.411       .  A
C143        C144   1.394       .  A
C143        F150   1.357       .  S
C144        C145   1.410       .  A
C144        F149   1.358       .  S
C145        C146   1.408       .  A
C146        F147   1.358       .  S
C151        C152   1.413       .  A
C151        C156   1.391       .  A
C151        F158   1.358       .  S
C152        C153   1.408       .  A
C153        C154   1.401       .  A
C153        F160   1.358       .  S
C154        C155   1.410       .  A
C154        F159   1.358       .  S
C155        C156   1.404       .  A
C156        F157   1.358       .  S
C161        C162   1.411       .  A
C161        C166   1.398       .  A
C161        F168   1.358       .  S
C162        C163   1.407       .  A
C163        C164   1.396       .  A
C163        F170   1.358       .  S
C164        C165   1.406       .  A
C164        F169   1.358       .  S
C165        C166   1.404       .  A
C166        F167   1.358       .  S
C171        C172   1.407       .  A
C171        C176   1.397       .  A
C171        F178   1.358       .  S
C172        C173   1.408   1_655  A
C173        C174   1.394       .  A
C173        F180   1.358       .  S
C174        C175   1.411       .  A
C174        F179   1.358       .  S
C175        C176   1.412   1_455  A
C176        F177   1.357       .  S
C181        C182   1.407       .  A
C181        C186   1.390       .  A
C181        F188   1.359       .  S
C182        C183   1.410       .  A
C183        C184   1.403       .  A
C183        F190   1.358       .  S
C184        C185   1.406       .  A
C184        F189   1.358       .  S
C185        C186   1.404       .  A
C186        F187   1.357       .  S
C191        C192   1.405       .  A
C191        C196   1.398       .  A
C191        F198   1.358       .  S
C192        C193   1.407       .  A
C193        C194   1.394       .  A
C193        F200   1.358       .  S
C194        C195   1.406       .  A
C194        F199   1.358       .  S
C195        C196   1.409       .  A
C196        F197   1.358       .  S
C201        C202   1.399       .  A
C201        C206   1.392       .  A
C201        F208   1.358       .  S
C202        C203   1.400       .  A
C203        C204   1.398       .  A
C203        F210   1.358       .  S
C204        C205   1.410       .  A
C204        F209   1.358       .  S
C205        C206   1.410       .  A
C206        F207   1.358       .  S
C211        C212   1.408   1_655  A
C211        C216   1.399       .  A
C211        F218   1.358       .  S
C212        C213   1.409       .  A
C213        C214   1.399   1_545  A
C213        F220   1.358       .  S
C214        C215   1.405       .  A
C214        F219   1.358       .  S
C215        C216   1.407   1_465  A
C216        F217   1.358       .  S
C221        C222   1.410       .  A
C221        C226   1.393       .  A
C221        F228   1.357       .  S
C222        C223   1.408   1_554  A
C223        C224   1.402       .  A
C223        F230   1.358       .  S
C224        C225   1.407       .  A
C224        F229   1.358       .  S
C225        C226   1.402   1_556  A
C226        F227   1.359       .  S
C231        C232   1.406       .  A
C231        C236   1.393   1_565  A
C231        F238   1.358       .  S
C232        C233   1.409   1_565  A
C233        C234   1.401       .  A
C233        F240   1.358       .  S
C234        C235   1.406       .  A
C234        F239   1.358       .  S
C235        C236   1.406       .  A
C236        F237   1.357       .  S
C241        C242   1.411       .  A
C241        C246   1.398       .  A
C241        F248   1.358       .  S
C242        C243   1.411       .  A
C243        C244   1.394       .  A
C243        F250   1.358       .  S
C244        C245   1.406       .  A
C244        F249   1.358       .  S
C245        C246   1.407       .  A
C246        F247   1.358       .  S
C251        C252   1.405   1_554  A
C251        C256   1.398       .  A
C251        F258   1.358       .  S
C252        C253   1.404   1_565  A
C253        C254   1.396       .  A
C253        F260   1.358       .  S
C254        C255   1.410   1_556  A
C254        F259   1.358       .  S
C255        C256   1.409   1_545  A
C256        F257   1.358       .  S
C261        C262   1.407       .  A
C261        C266   1.399       .  A
C261        F268   1.358       .  S
C262        C263   1.406       .  A
C263        C264   1.394       .  A
C263        F270   1.358       .  S
C264        C265   1.410       .  A
C264        F269   1.358       .  S
C265        C266   1.413       .  A
C266        F267   1.358       .  S
C271        C272   1.407       .  A
C271        C276   1.394       .  A
C271        F278   1.358       .  S
C272        C273   1.404       .  A
C273        C274   1.397       .  A
C273        F280   1.358       .  S
C274        C275   1.410       .  A
C274        F279   1.358       .  S
C275        C276   1.405       .  A
C276        F277   1.358       .  S
C281        C282   1.411       .  A
C281        C286   1.407       .  A
C281        F288   1.357       .  S
C282        C283   1.411   1_556  A
C283        C284   1.391       .  A
C283        F290   1.358       .  S
C284        C285   1.410       .  A
C284        F289   1.357       .  S
C285        C286   1.412   1_554  A
C286        F287   1.358       .  S
C291        C292   1.410   1_455  A
C291        C296   1.402       .  A
C291        F298   1.358       .  S
C292        C293   1.411       .  A
C293        C294   1.393       .  A
C293        F300   1.358       .  S
C294        C295   1.408   1_655  A
C294        F299   1.357       .  S
C295        C296   1.410       .  A
C296        F297   1.358       .  S
C301        C302   1.404       .  A
C301        C306   1.396   1_655  A
C301        F308   1.358       .  S
C302        C303   1.405   1_654  A
C303        C304   1.399       .  A
C303        F310   1.358       .  S
C304        C305   1.409   1_556  A
C304        F309   1.358       .  S
C305        C306   1.408       .  A
C306        F307   1.358       .  S
C311        C312   1.411       .  A
C311        C316   1.399       .  A
C311        F318   1.358       .  S
C312        C313   1.409       .  A
C313        C314   1.397       .  A
C313        F320   1.358       .  S
C314        C315   1.405       .  A
C314        F319   1.358       .  S
C315        C316   1.404       .  A
C316        F317   1.358       .  S
C321        C322   1.409       .  A
C321        C326   1.397       .  A
C321        F328   1.358       .  S
C322        C323   1.409       .  A
C323        C324   1.398       .  A
C323        F330   1.358       .  S
C324        C325   1.404       .  A
C324        F329   1.358       .  S
C325        C326   1.404       .  A
C326        F327   1.358       .  S
C331        C332   1.407       .  A
C331        C336   1.397       .  A
C331        F338   1.358       .  S
C332        C333   1.408       .  A
C333        C334   1.398       .  A
C333        F340   1.358       .  S
C334        C335   1.406       .  A
C334        F339   1.358       .  S
C335        C336   1.406       .  A
C336        F337   1.358       .  S
C341        C342   1.407       .  A
C341        C346   1.395       .  A
C341        F348   1.358       .  S
C342        C343   1.407       .  A
C343        C344   1.401       .  A
C343        F350   1.358       .  S
C344        C345   1.407       .  A
C344        F349   1.358       .  S
C345        C346   1.407       .  A
C346        F347   1.358       .  S
C351        C352   1.405       .  A
C351        C356   1.403       .  A
C351        F358   1.358       .  S
C352        C353   1.404       .  A
C353        C354   1.392       .  A
C353        F360   1.358       .  S
C354        C355   1.407       .  A
C354        F359   1.359       .  S
C355        C356   1.408       .  A
C356        F357   1.358       .  S
C361        C362   1.406       .  A
C361        C366   1.393       .  A
C361        F368   1.357       .  S
C362        C363   1.406       .  A
C363        C364   1.403       .  A
C363        F370   1.358       .  S
C364        C365   1.409       .  A
C364        F369   1.358       .  S
C365        C366   1.406       .  A
C366        F367   1.358       .  S
C371        C372   1.412       .  A
C371        C376   1.400       .  A
C371        F378   1.358       .  S
C372        C373   1.410       .  A
C373        C374   1.398       .  A
C373        F380   1.358       .  S
C374        C375   1.407       .  A
C374        F379   1.358       .  S
C375        C376   1.405       .  A
C376        F377   1.358       .  S
