geometry optimzed in LAMMPS
_audit_creation_date              2020-11-30 
_audit_creation_method            'lammps2cif' 
_symmetry_space_group_name_H-M    'P1' 
_symmetry_Int_Tables_number       1 
_symmetry_cell_setting            triclinic 
loop_ 
_symmetry_equiv_pos_as_xyz 
  x,y,z 
_cell_length_a                    104.34196219077793 
_cell_length_b                    103.82774509045247 
_cell_length_c                    104.11893203130806 
_cell_angle_alpha                 90.0607939350201 
_cell_angle_beta                  90.1266948934881 
_cell_angle_gamma                 90.09053434179894 
loop_ 
_atom_site_label 
_atom_site_type_symbol 
_atom_site_fract_x 
_atom_site_fract_y 
_atom_site_fract_z 
_atom_site_charge 
N1          N  0.85663344  0.19535548  0.32623587    -0.26900
N2          N  0.84959543  0.19790634  0.31597441    -0.34760
C3          C  0.84397493  0.20944553  0.31749240     0.01440
C4          C  0.84757742  0.21438286  0.32931247     0.07470
C5          C  0.85572535  0.20525940  0.33452962    -0.05630
H6          H  0.83778591  0.21394189  0.31046020     0.08140
H7          H  0.86050168  0.20570611  0.34375440     0.09340
Cu8        Cu  0.84778940  0.18566135  0.30034806     0.44170
Cu9        Cu  0.86677412  0.17833725  0.32868401     0.41990
Cu10       Cu  0.86427595  0.15530663  0.30251738     0.43880
N11         N  0.84715383  0.17175393  0.28607968    -0.34280
N12         N  0.85313360  0.16056713  0.28692227    -0.28540
C13         C  0.85057770  0.15356700  0.27634497    -0.04640
C14         C  0.84275353  0.16079373  0.26844237     0.07580
C15         C  0.84067300  0.17221153  0.27491116     0.01370
H16         H  0.85408727  0.14392832  0.27457955     0.09030
H17         H  0.83476972  0.18018635  0.27181144     0.08100
N18         N  0.87428547  0.15190202  0.31935436    -0.35730
N19         N  0.87514987  0.16021062  0.32895641    -0.27910
C20         C  0.88193057  0.15481949  0.33855259    -0.03150
C21         C  0.88530697  0.14249398  0.33484983     0.05460
C22         C  0.88052133  0.14105148  0.32255097     0.03550
H23         H  0.88413576  0.15947631  0.34759391     0.08660
H24         H  0.88146410  0.13271915  0.31637638     0.07490
N25         N  0.96378393  0.08814714  0.39713543    -0.26900
N26         N  0.96371497  0.07763662  0.40426322    -0.34760
C27         C  0.97448043  0.07732607  0.41137033     0.01440
C28         C  0.98168567  0.08821924  0.40864345     0.07470
C29         C  0.97464926  0.09473741  0.39939760    -0.05630
H30         H  0.97680744  0.06977089  0.41812740     0.08140
H31         H  0.97719220  0.10361294  0.39460652     0.09340
Cu32       Cu  0.94906890  0.06415098  0.40375494     0.44170
Cu33       Cu  0.94876630  0.09341125  0.38525783     0.41990
Cu34       Cu  0.92329769  0.06999928  0.38104674     0.43880
N35         N  0.93405496  0.05146590  0.40051559    -0.34280
N36         N  0.92487540  0.05334385  0.39196437    -0.28540
C37         C  0.91698954  0.04307365  0.39195610    -0.04640
C38         C  0.92128915  0.03435845  0.40110621     0.07580
C39         C  0.93219489  0.04003729  0.40624622     0.01370
H40         H  0.90886052  0.04201132  0.38558466     0.09030
H41         H  0.93837279  0.03616825  0.41364793     0.08100
N42         N  0.92310589  0.08829817  0.37300515    -0.35730
N43         N  0.93219564  0.09694487  0.37490116    -0.27910
C44         C  0.92874790  0.10807442  0.36931099    -0.03150
C45         C  0.91693136  0.10639491  0.36331658     0.05460
C46         C  0.91372116  0.09364743  0.36596504     0.03550
H47         H  0.93439387  0.11675545  0.37004613     0.08660
H48         H  0.90512838  0.08855161  0.36312472     0.07490
N49         N  0.77848796  0.85492938  0.34462367    -0.26900
N50         N  0.77736904  0.84968616  0.33310010    -0.34760
C51         C  0.76606249  0.84353748  0.33226502     0.01440
C52         C  0.75959307  0.84526323  0.34369385     0.07470
C53         C  0.76782858  0.85233132  0.35140401    -0.05630
H54         H  0.76289088  0.83807220  0.32399287     0.08140
H55         H  0.76619614  0.85534003  0.36121681     0.09340
Cu56       Cu  0.79112032  0.85109343  0.31894002     0.44170
Cu57       Cu  0.79454433  0.86524037  0.35049073     0.41990
Cu58       Cu  0.81985472  0.86869704  0.32665759     0.43880
N59         N  0.80644614  0.85283558  0.30655561    -0.34280
N60         N  0.81718209  0.85889605  0.30951976    -0.28540
C61         C  0.82554964  0.85746357  0.29982926    -0.04640
C62         C  0.81980817  0.85011750  0.29026012     0.07580
C63         C  0.80759127  0.84757100  0.29483276     0.01370
H64         H  0.83518436  0.86132141  0.29988070     0.09030
H65         H  0.80001938  0.84227930  0.29006966     0.08100
N66         N  0.82033339  0.87715416  0.34468269    -0.35730
N67         N  0.81136147  0.87555419  0.35350532    -0.27910
C68         C  0.81493113  0.88176118  0.36428678    -0.03150
C69         C  0.82663072  0.88759628  0.36206472     0.05460
C70         C  0.82974642  0.88457052  0.34954502     0.03550
H71         H  0.80941207  0.88203676  0.37306745     0.08660
H72         H  0.83834885  0.88730714  0.34444046     0.07490
N73         N  0.88467186  0.92782331  0.45043939    -0.26900
N74         N  0.89175857  0.93806774  0.45299212    -0.34760
C75         C  0.89737163  0.93656902  0.46451921     0.01440
C76         C  0.89379819  0.92470549  0.46943192     0.07470
C77         C  0.88562533  0.91949160  0.46027690    -0.05630
H78         H  0.90358346  0.94363757  0.46897268     0.08140
H79         H  0.88088425  0.91022567  0.46063128     0.09340
Cu80       Cu  0.89402587  0.95331101  0.44043067     0.44170
Cu81       Cu  0.87446704  0.92556788  0.43346261     0.41990
Cu82       Cu  0.88106723  0.94923202  0.40848973     0.43880
N83         N  0.89626489  0.96667926  0.42589122    -0.34280
N84         N  0.89168541  0.96518418  0.41413675    -0.28540
C85         C  0.89487157  0.97555190  0.40707403    -0.04640
C86         C  0.90197016  0.98383317  0.41471680     0.07580
C87         C  0.90248684  0.97799144  0.42662896     0.01370
H88         H  0.89221785  0.97696379  0.39712325     0.09030
H89         H  0.90676384  0.98179067  0.43531191     0.08100
N90         N  0.86940877  0.93321732  0.40594824    -0.35730
N91         N  0.86655456  0.92497900  0.41517451    -0.27910
C92         C  0.85836125  0.91612019  0.41052624    -0.03150
C93         C  0.85590544  0.91883767  0.39770161     0.05460
C94         C  0.86327223  0.92968183  0.39513696     0.03550
H95         H  0.85455020  0.90822657  0.41611613     0.08660
H96         H  0.86434584  0.93457833  0.38604557     0.07490
N97         N  0.92077048  0.94437682  0.11751492    -0.26900
N98         N  0.93059535  0.94702138  0.10995291    -0.34760
C99         C  0.92866028  0.95851462  0.10434736     0.01440
C100        C  0.91701211  0.96323294  0.10847661     0.07470
C101        C  0.91232731  0.95413927  0.11694346    -0.05630
H102        H  0.93522144  0.96307123  0.09771873     0.08140
H103        H  0.90341474  0.95453935  0.12221915     0.09340
Cu104      Cu  0.94612612  0.93488820  0.10742734     0.44170
Cu105      Cu  0.91905784  0.92741146  0.12784097     0.41990
Cu106      Cu  0.94391844  0.90368006  0.12241889     0.43880
N107        N  0.96043901  0.92113075  0.10644706    -0.34280
N108        N  0.95965272  0.90973300  0.11202100    -0.28540
C109        C  0.97039577  0.90305442  0.10957773    -0.04640
C110        C  0.97835732  0.91062562  0.10210181     0.07580
C111        C  0.97168130  0.92198765  0.10023037     0.01370
H112        H  0.97208636  0.89326859  0.11270438     0.09030
H113        H  0.97473448  0.93025287  0.09470169     0.08100
N114        N  0.92778587  0.90033845  0.13339580    -0.35730
N115        N  0.91894257  0.90911037  0.13575794    -0.27910
C116        C  0.91000531  0.90398002  0.14349780    -0.03150
C117        C  0.91338715  0.89135164  0.14618412     0.05460
C118        C  0.92464739  0.88936025  0.13943793     0.03550
H119        H  0.90163110  0.90908728  0.14686577     0.08660
H120        H  0.93010582  0.88054216  0.13875937     0.07490
N121        N  0.85791668  0.80033582  0.18467626    -0.26900
N122        N  0.85075209  0.79769375  0.19479824    -0.34760
C123        C  0.84486283  0.78631684  0.19293254     0.01440
C124        C  0.84839853  0.78170215  0.18101692     0.07470
C125        C  0.85682077  0.79070037  0.17610993    -0.05630
H126        H  0.83834642  0.78183982  0.19965828     0.08140
H127        H  0.86161072  0.79038887  0.16690876     0.09340
Cu128      Cu  0.84871256  0.81001702  0.21029699     0.44170
Cu129      Cu  0.86794725  0.81737236  0.18247165     0.41990
Cu130      Cu  0.85949401  0.84262941  0.20494453     0.43880
N131        N  0.84665580  0.82471619  0.22357318    -0.34280
N132        N  0.85005021  0.83676788  0.22137941    -0.28540
C133        C  0.84697677  0.84399780  0.23162997    -0.04640
C134        C  0.84161596  0.83606828  0.24090372     0.07580
C135        C  0.84149368  0.82391328  0.23534677     0.01370
H136        H  0.84847235  0.85428938  0.23216279     0.09030
H137        H  0.83796201  0.81507010  0.23953728     0.08100
N138        N  0.87103845  0.84542285  0.18906091    -0.35730
N139        N  0.87460107  0.83609006  0.18119131    -0.27910
C140        C  0.88237955  0.84099859  0.17215195    -0.03150
C141        C  0.88359534  0.85404804  0.17438495     0.05460
C142        C  0.87633874  0.85655205  0.18517063     0.03550
H143        H  0.88654917  0.83554369  0.16435420     0.08660
H144        H  0.87502937  0.86576243  0.18985444     0.07490
N145        N  0.77700789  0.14237527  0.16615938    -0.26900
N146        N  0.77664508  0.14884526  0.17709659    -0.34760
C147        C  0.76558907  0.15542715  0.17776109     0.01440
C148        C  0.75857203  0.15292522  0.16676286     0.07470
C149        C  0.76616887  0.14474401  0.15953846    -0.05630
H150        H  0.76309684  0.16188690  0.18550588     0.08140
H151        H  0.76397661  0.14081803  0.15015543     0.09340
Cu152      Cu  0.79111823  0.14864982  0.19069874     0.44170
Cu153      Cu  0.79232826  0.13075906  0.16078786     0.41990
Cu154      Cu  0.81844064  0.12874449  0.18398112     0.43880
N155        N  0.80607015  0.14604419  0.20349724    -0.34280
N156        N  0.81602216  0.13856423  0.20113708    -0.28540
C157        C  0.82389261  0.13873631  0.21137911    -0.04640
C158        C  0.81853829  0.14656858  0.22068928     0.07580
C159        C  0.80736735  0.15124145  0.21525743     0.01370
H160        H  0.83290408  0.13362803  0.21197277     0.09030
H161        H  0.80083221  0.15819355  0.21934317     0.08100
N162        N  0.81849861  0.11958373  0.16628786    -0.35730
N163        N  0.80899530  0.12017194  0.15788771    -0.27910
C164        C  0.81221736  0.11330419  0.14741653    -0.03150
C165        C  0.82425768  0.10803256  0.14937222     0.05460
C166        C  0.82800415  0.11238993  0.16137300     0.03550
H167        H  0.80629882  0.11234509  0.13892170     0.08660
H168        H  0.83716811  0.11098987  0.16600635     0.07490
N169        N  0.88650699  0.03118647  0.09411761    -0.26900
N170        N  0.89210681  0.03012939  0.08278072    -0.34760
C171        C  0.89850908  0.01890961  0.08227515     0.01440
C172        C  0.89700028  0.01274045  0.09391315     0.07470
C173        C  0.88934867  0.02074261  0.10120798    -0.05630
H174        H  0.90404116  0.01560971  0.07413796     0.08140
H175        H  0.88606805  0.01908823  0.11091827     0.09340
Cu176      Cu  0.89137670  0.04426771  0.06877478     0.44170
Cu177      Cu  0.87530463  0.04680262  0.09939397     0.41990
Cu178      Cu  0.87533022  0.07391010  0.07742489     0.43880
N179        N  0.88980601  0.05996569  0.05660450    -0.34280
N180        N  0.88382911  0.07075518  0.05967557    -0.28540
C181        C  0.88435719  0.07888932  0.04963344    -0.04640
C182        C  0.89100001  0.07291975  0.03979134     0.07580
C183        C  0.89441624  0.06099524  0.04460070     0.01370
H184        H  0.88037036  0.08850252  0.04957055     0.09030
H185        H  0.89981193  0.05358151  0.03970904     0.08100
N186        N  0.86614783  0.07398803  0.09510468    -0.35730
N187        N  0.86556766  0.06387884  0.10276248    -0.27910
C188        C  0.85823538  0.06678575  0.11295426    -0.03150
C189        C  0.85397537  0.07941388  0.11177931     0.05460
C190        C  0.85943400  0.08368386  0.10037155     0.03550
H191        H  0.85619547  0.06011011  0.12064713     0.08660
H192        H  0.85881434  0.09317380  0.09618072     0.07490
N193        N  0.40644280  0.60720019  0.47296774    -0.26900
N194        N  0.41687664  0.60000539  0.47297104    -0.34760
C195        C  0.41734127  0.59322330  0.48394724     0.01440
C196        C  0.40676540  0.59642050  0.49131514     0.07470
C197        C  0.40001401  0.60522398  0.48396220    -0.05630
H198        H  0.42472933  0.58629966  0.48625338     0.08140
H199        H  0.39103643  0.60981772  0.48637715     0.09340
Cu200      Cu  0.43005250  0.59973511  0.45813035     0.44170
Cu201      Cu  0.40105901  0.61889003  0.45780149     0.41990
Cu202      Cu  0.42232371  0.61905159  0.43039589     0.43880
N203        N  0.44217983  0.60204393  0.44258482    -0.34280
N204        N  0.43943699  0.60929907  0.43253793    -0.28540
C205        C  0.44935408  0.60907367  0.42432980    -0.04640
C206        C  0.45875167  0.60111810  0.42935637     0.07580
C207        C  0.45389358  0.59693731  0.44100675     0.01370
H208        H  0.44970862  0.61443629  0.41543650     0.09030
H209        H  0.45850579  0.59059848  0.44783395     0.08100
N210        N  0.40461133  0.62791579  0.43057993    -0.35730
N211        N  0.39701833  0.62824391  0.44072538    -0.27910
C212        C  0.38638013  0.63490908  0.43776344    -0.03150
C213        C  0.38727287  0.63874063  0.42509606     0.05460
C214        C  0.39895117  0.63420833  0.42083519     0.03550
H215        H  0.37847924  0.63660571  0.44425820     0.08660
H216        H  0.40306113  0.63545155  0.41138447     0.07490
N217        N  0.33479261  0.71622470  0.36098125    -0.26900
N218        N  0.32318682  0.71728680  0.35598387    -0.34760
C219        C  0.32241216  0.72842188  0.34947090     0.01440
C220        C  0.33417537  0.73451686  0.35019708     0.07470
C221        C  0.34173778  0.72664724  0.35774683    -0.05630
H222        H  0.31390141  0.73182302  0.34459379     0.08140
H223        H  0.35156894  0.72833682  0.36062117     0.09340
Cu224      Cu  0.30908384  0.70337307  0.35779512     0.44170
Cu225      Cu  0.34054526  0.70065995  0.37193882     0.41990
Cu226      Cu  0.31696348  0.67515116  0.37636020     0.43880
N227        N  0.29696085  0.68770824  0.35978188    -0.34280
N228        N  0.29982092  0.67733042  0.36653147    -0.28540
C229        C  0.29005856  0.66889070  0.36568323    -0.04640
C230        C  0.28064073  0.67417854  0.35791239     0.07580
C231        C  0.28532635  0.68616033  0.35444973     0.01370
H232        H  0.28981855  0.65964645  0.37045983     0.09030
H233        H  0.28068677  0.69319413  0.34835838     0.08100
N234        N  0.33494857  0.67528354  0.38483333    -0.35730
N235        N  0.34357432  0.68445496  0.38307016    -0.27910
C236        C  0.35427735  0.68145854  0.38961450    -0.03150
C237        C  0.35217326  0.67000529  0.39602309     0.05460
C238        C  0.33992195  0.66624443  0.39260371     0.03550
H239        H  0.36301341  0.68708196  0.38948384     0.08660
H240        H  0.33504129  0.65749684  0.39543103     0.07490
N241        N  0.17424667  0.63880815  0.30852046    -0.26900
N242        N  0.18480005  0.64526862  0.30569199    -0.34760
C243        C  0.18333086  0.65086939  0.29414740     0.01440
C244        C  0.17119779  0.64795843  0.28963492     0.07470
C245        C  0.16576383  0.64014716  0.29886903    -0.05630
H246        H  0.19050634  0.65672791  0.28944920     0.08140
H247        H  0.15631235  0.63585148  0.29864778     0.09340
Cu248      Cu  0.20046613  0.64670018  0.31789403     0.44170
Cu249      Cu  0.17173373  0.62880072  0.32551120     0.41990
Cu250      Cu  0.19741422  0.63141750  0.34893616     0.43880
N251        N  0.21420072  0.64798969  0.33225654    -0.34280
N252        N  0.21304773  0.64250179  0.34365359    -0.28540
C253        C  0.22329431  0.64559757  0.35089868    -0.04640
C254        C  0.23114839  0.65353658  0.34375169     0.07580
C255        C  0.22522216  0.65470083  0.33192768     0.01370
H256        H  0.22483441  0.64242361  0.36067446     0.09030
H257        H  0.22858431  0.66016730  0.32375625     0.08100
N258        N  0.18056918  0.62132931  0.35203992    -0.35730
N259        N  0.17124089  0.62032646  0.34348756    -0.27910
C260        C  0.16160468  0.61341475  0.34856625    -0.03150
C261        C  0.16495796  0.61002728  0.36098742     0.05460
C262        C  0.17710590  0.61510346  0.36279798     0.03550
H263        H  0.15280670  0.61107045  0.34356399     0.08660
H264        H  0.18291267  0.61454042  0.37140120     0.07490
N265        N  0.10580085  0.57325620  0.44951967    -0.26900
N266        N  0.10034918  0.56233394  0.45304831    -0.34760
C267        C  0.09564095  0.56368749  0.46496745     0.01440
C268        C  0.09826939  0.57606989  0.46922929     0.07470
C269        C  0.10460978  0.58189522  0.45907113    -0.05630
H270        H  0.09067408  0.55616113  0.47013960     0.08140
H271        H  0.10798088  0.59173319  0.45853359     0.09340
Cu272      Cu  0.09899161  0.54625841  0.44134633     0.44170
Cu273      Cu  0.11486385  0.57575843  0.43201500     0.41990
Cu274      Cu  0.11330403  0.54882932  0.40987402     0.43880
N275        N  0.09724647  0.53225809  0.42728140    -0.34280
N276        N  0.10220870  0.53334973  0.41567375    -0.28540
C277        C  0.09882449  0.52301632  0.40866027    -0.04640
C278        C  0.09130588  0.51500998  0.41618653     0.07580
C279        C  0.09066310  0.52114632  0.42800318     0.01370
H280        H  0.10152623  0.52154362  0.39874231     0.09030
H281        H  0.08581527  0.51781336  0.43654911     0.08100
N282        N  0.12380799  0.56540984  0.40648016    -0.35730
N283        N  0.12419526  0.57531190  0.41447884    -0.27910
C284        C  0.13151384  0.58464152  0.40935749    -0.03150
C285        C  0.13602404  0.58031789  0.39767532     0.05460
C286        C  0.13093368  0.56814404  0.39607870     0.03550
H287        H  0.13334834  0.59390268  0.41377192     0.08660
H288        H  0.13212240  0.56184257  0.38788647     0.07490
N289        N  0.63939618  0.16167204  0.72258682    -0.26900
N290        N  0.64598083  0.17253393  0.72296909    -0.34760
C291        C  0.65217139  0.17331665  0.73427760     0.01440
C292        C  0.64911908  0.16254395  0.74155470     0.07470
C293        C  0.64106462  0.15533742  0.73371511    -0.05630
H294        H  0.65852562  0.18113193  0.73688355     0.08140
H295        H  0.63666284  0.14616761  0.73592487     0.09340
Cu296      Cu  0.64555293  0.18613946  0.70842160     0.44170
Cu297      Cu  0.62852515  0.15598935  0.70691027     0.41990
Cu298      Cu  0.62218497  0.18050402  0.68306606     0.43880
N299        N  0.64179927  0.19909357  0.69375447    -0.34280
N300        N  0.63308555  0.19719936  0.68471023    -0.28540
C301        C  0.63291967  0.20748171  0.67686747    -0.04640
C302        C  0.64188771  0.21634988  0.68122105     0.07580
C303        C  0.64741820  0.21060156  0.69188435     0.01370
H304        H  0.62671894  0.20841607  0.66857994     0.09030
H305        H  0.65510779  0.21437980  0.69777242     0.08100
N306        N  0.61434171  0.16210498  0.68245448    -0.35730
N307        N  0.61727845  0.15298736  0.69077461    -0.27910
C308        C  0.61158289  0.14194324  0.68718002    -0.03150
C309        C  0.60431556  0.14420828  0.67621343     0.05460
C310        C  0.60644763  0.15715258  0.67349169     0.03550
H311        H  0.61297528  0.13291099  0.69212132     0.08660
H312        H  0.60267583  0.16261782  0.66550367     0.07490
N313        N  0.56756599  0.05457999  0.61659292    -0.26900
N314        N  0.55792374  0.05233352  0.60864546    -0.34760
C315        C  0.55963230  0.04080741  0.60303570     0.01440
C316        C  0.57096389  0.03555058  0.60756097     0.07470
C317        C  0.57567318  0.04452074  0.61624839    -0.05630
H318        H  0.55312707  0.03660283  0.59608878     0.08140
H319        H  0.58429778  0.04377816  0.62198235     0.09340
Cu320      Cu  0.54278390  0.06490293  0.60580404     0.44170
Cu321      Cu  0.56941033  0.07140010  0.62720660     0.41990
Cu322      Cu  0.54424222  0.09512809  0.62288329     0.43880
N323        N  0.52824650  0.07845839  0.60544105    -0.34280
N324        N  0.52864064  0.08938525  0.61193698    -0.28540
C325        C  0.51763205  0.09581536  0.61001161    -0.04640
C326        C  0.50986866  0.08857411  0.60193018     0.07580
C327        C  0.51703331  0.07769574  0.59910970     0.01370
H328        H  0.51545765  0.10508929  0.61421372     0.09030
H329        H  0.51441108  0.06984894  0.59278541     0.08100
N330        N  0.56091155  0.09850368  0.63321229    -0.35730
N331        N  0.56987754  0.08972138  0.63515770    -0.27910
C332        C  0.57928002  0.09489426  0.64237032    -0.03150
C333        C  0.57616519  0.10757889  0.64487514     0.05460
C334        C  0.56444821  0.10954699  0.63898773     0.03550
H335        H  0.58786610  0.08987599  0.64534395     0.08660
H336        H  0.55887750  0.11832709  0.63896175     0.07490
N337        N  0.08287235  0.60852380  0.53652218    -0.26900
N338        N  0.07075402  0.60562194  0.53421964    -0.34760
C339        C  0.06991904  0.59967526  0.52276796     0.01440
C340        C  0.08215984  0.59852782  0.51769784     0.07470
C341        C  0.09008224  0.60438917  0.52668202    -0.05630
H342        H  0.06102249  0.59638363  0.51854456     0.08140
H343        H  0.10039302  0.60538285  0.52625173     0.09340
Cu344      Cu  0.05615005  0.60861524  0.54736694     0.44170
Cu345      Cu  0.08915692  0.61791645  0.55290258     0.41990
Cu346      Cu  0.06602231  0.62152704  0.57825284     0.43880
N347        N  0.04446497  0.60902518  0.56345190    -0.34280
N348        N  0.04828432  0.61316766  0.57483413    -0.28540
C349        C  0.03897399  0.61091866  0.58344455    -0.04640
C350        C  0.02873744  0.60503136  0.57723274     0.07580
C351        C  0.03254972  0.60419818  0.56448948     0.01370
H352        H  0.03975721  0.61317952  0.59355909     0.09030
H353        H  0.02716618  0.60029810  0.55649863     0.08100
N354        N  0.08423477  0.62949970  0.57890147    -0.35730
N355        N  0.09275752  0.62804049  0.56964999    -0.27910
C356        C  0.10356008  0.63433543  0.57287866    -0.03150
C357        C  0.10178236  0.64000077  0.58478726     0.05460
C358        C  0.08937170  0.63681072  0.58825960     0.03550
H359        H  0.11199179  0.63490452  0.56687993     0.08660
H360        H  0.08446581  0.63950520  0.59700141     0.07490
N361        N  0.18983988  0.67919639  0.64405996    -0.26900
N362        N  0.19349513  0.69028820  0.64913487    -0.34760
C363        C  0.20546353  0.68906777  0.65377742     0.01440
C364        C  0.20952658  0.67654225  0.65168831     0.07470
C365        C  0.19939375  0.67061480  0.64537815    -0.05630
H366        H  0.21079980  0.69678000  0.65830518     0.08140
H367        H  0.19893386  0.66073394  0.64209813     0.09340
Cu368      Cu  0.18194496  0.70647167  0.65007050     0.44170
Cu369      Cu  0.17210909  0.67624581  0.63541214     0.41990
Cu370      Cu  0.15085809  0.70366097  0.63509187     0.43880
N371        N  0.16787517  0.72046098  0.65137159    -0.34280
N372        N  0.15634864  0.71919953  0.64621671    -0.28540
C373        C  0.14916551  0.72942438  0.64945759    -0.04640
C374        C  0.15661468  0.73757782  0.65682343     0.07580
C375        C  0.16840879  0.73163944  0.65788753     0.01370
H376        H  0.13929057  0.73084067  0.64660787     0.09030
H377        H  0.17666153  0.73505620  0.66320642     0.08100
N378        N  0.14702521  0.68666482  0.62550628    -0.35730
N379        N  0.15449273  0.67642800  0.62607656    -0.27910
C380        C  0.14891834  0.66677897  0.61949904    -0.03150
C381        C  0.13734937  0.67112807  0.61450652     0.05460
C382        C  0.13662059  0.68388840  0.61839420     0.03550
H383        H  0.15296306  0.65723979  0.61856598     0.08660
H384        H  0.12915880  0.69076096  0.61622521     0.07490
N385        N  0.60080390  0.03307036  0.91548610    -0.26900
N386        N  0.59467644  0.03218009  0.92656216    -0.34760
C387        C  0.58805450  0.02105013  0.92680356     0.01440
C388        C  0.59011274  0.01468440  0.91533700     0.07470
C389        C  0.59830285  0.02249739  0.90841441    -0.05630
H390        H  0.58213577  0.01786221  0.93470834     0.08140
H391        H  0.60201161  0.02072394  0.89888061     0.09340
Cu392      Cu  0.59560288  0.04613529  0.94085336     0.44170
Cu393      Cu  0.61197875  0.04879510  0.91035230     0.41990
Cu394      Cu  0.61651718  0.07336985  0.93465171     0.43880
N395        N  0.59856702  0.06111568  0.95377679    -0.34280
N396        N  0.60635516  0.07092656  0.95158611    -0.28540
C397        C  0.60618745  0.07887523  0.96179402    -0.04640
C398        C  0.59795811  0.07379387  0.97089671     0.07580
C399        C  0.59320019  0.06259932  0.96542333     0.01370
H400        H  0.61148811  0.08781814  0.96243622     0.09030
H401        H  0.58635908  0.05599592  0.96961576     0.08100
N402        N  0.62451330  0.07429543  0.91644686    -0.35730
N403        N  0.62257492  0.06548275  0.90748665    -0.27910
C404        C  0.62851888  0.06917717  0.89665588    -0.03150
C405        C  0.63450305  0.08092576  0.89883560     0.05460
C406        C  0.63185932  0.08376186  0.91158858     0.03550
H407        H  0.62836193  0.06373869  0.88778874     0.08660
H408        H  0.63507264  0.09204127  0.91702608     0.07490
N409        N  0.71220957  0.14355566  0.84496863    -0.26900
N410        N  0.71212325  0.15082620  0.83454317    -0.34760
C411        C  0.72303660  0.15771661  0.83409121     0.01440
C412        C  0.73039723  0.15447922  0.84463333     0.07470
C413        C  0.72327559  0.14550587  0.85135116    -0.05630
H414        H  0.72550893  0.16443048  0.82654935     0.08140
H415        H  0.72587959  0.14085268  0.86027378     0.09340
Cu416      Cu  0.69753142  0.15058786  0.82103279     0.44170
Cu417      Cu  0.69708203  0.13164438  0.85019115     0.41990
Cu418      Cu  0.67097352  0.12916366  0.82712945     0.43880
N419        N  0.68276234  0.14743141  0.80808687    -0.34280
N420        N  0.67317548  0.13936252  0.81015329    -0.28540
C421        C  0.66545966  0.13925201  0.79977915    -0.04640
C422        C  0.67047462  0.14764200  0.79075876     0.07580
C423        C  0.68137004  0.15273663  0.79639995     0.01370
H424        H  0.65675217  0.13363802  0.79894637     0.09030
H425        H  0.68786627  0.15972242  0.79227190     0.08100
N426        N  0.67088599  0.12037275  0.84501599    -0.35730
N427        N  0.68039116  0.12121029  0.85341220    -0.27910
C428        C  0.67721811  0.11457161  0.86404493    -0.03150
C429        C  0.66522608  0.10922590  0.86215810     0.05460
C430        C  0.66142168  0.11320325  0.85008182     0.03550
H431        H  0.68314826  0.11378826  0.87254430     0.08660
H432        H  0.65241050  0.11110303  0.84535773     0.07490
N433        N  0.54981761  0.88952069  0.43236185    -0.26900
N434        N  0.54680371  0.89569613  0.44303948    -0.34760
C435        C  0.53486788  0.90042884  0.44191162     0.01440
C436        C  0.53004462  0.89695897  0.42998563     0.07470
C437        C  0.53985829  0.89014007  0.42416620    -0.05630
H438        H  0.53015689  0.90615098  0.44918637     0.08140
H439        H  0.53974961  0.88586303  0.41468573     0.09340
Cu440      Cu  0.55901411  0.89745652  0.45867351     0.44170
Cu441      Cu  0.56728643  0.88045243  0.42945004     0.41990
Cu442      Cu  0.58938838  0.88081381  0.45633193     0.43880
N443        N  0.57290005  0.89787896  0.47293412    -0.34280
N444        N  0.58399922  0.89182207  0.47207197    -0.28540
C445        C  0.59096892  0.89432418  0.48266813    -0.04640
C446        C  0.58383468  0.90217073  0.49067974     0.07580
C447        C  0.57250851  0.90437210  0.48411046     0.01370
H448        H  0.60070929  0.89110471  0.48411803     0.09030
H449        H  0.56461997  0.91038225  0.48716876     0.08100
N450        N  0.59278113  0.87095963  0.43931968    -0.35730
N451        N  0.58490831  0.87120989  0.42934634    -0.27910
C452        C  0.59008927  0.86438037  0.41968112    -0.03150
C453        C  0.60165206  0.85943413  0.42386358     0.05460
C454        C  0.60309805  0.86380461  0.43632790     0.03550
H455        H  0.58571772  0.86302975  0.41034281     0.08660
H456        H  0.61115143  0.86210698  0.44266355     0.07490
N457        N  0.69148555  0.82127876  0.36654226    -0.26900
N458        N  0.69445780  0.81072353  0.36009476    -0.34760
C459        C  0.70644529  0.81187389  0.35551232     0.01440
C460        C  0.71116664  0.82373385  0.35924145     0.07470
C461        C  0.70144376  0.82950389  0.36612384    -0.05630
H462        H  0.71126273  0.80472198  0.34971077     0.08140
H463        H  0.70158449  0.83896706  0.37048260     0.09340
Cu464      Cu  0.68188623  0.79549594  0.35748800     0.44170
Cu465      Cu  0.67404812  0.82394247  0.37560743     0.41990
Cu466      Cu  0.65086169  0.79794217  0.37311724     0.43880
N467        N  0.66785862  0.78140914  0.35644529    -0.34280
N468        N  0.65662144  0.78216170  0.36225391    -0.28540
C469        C  0.64992439  0.77134299  0.35978757    -0.04640
C470        C  0.65738855  0.76337659  0.35223054     0.07580
C471        C  0.66858122  0.77015839  0.35008988     0.01370
H472        H  0.64032304  0.76943196  0.36320189     0.09030
H473        H  0.67665487  0.76715466  0.34431827     0.08100
N474        N  0.64755703  0.81500638  0.38305140    -0.35730
N475        N  0.65602124  0.82446485  0.38386818    -0.27910
C476        C  0.65097294  0.83418078  0.39072734    -0.03150
C477        C  0.63868308  0.83074787  0.39431839     0.05460
C478        C  0.63688877  0.81847087  0.38941563     0.03550
H479        H  0.65603845  0.84294408  0.39313110     0.08660
H480        H  0.62838388  0.81256177  0.39027388     0.07490
N481        N  0.63374735  0.69543183  0.32734340    -0.26900
N482        N  0.63977789  0.69864459  0.31665279    -0.34760
C483        C  0.64456044  0.71061913  0.31795203     0.01440
C484        C  0.64143588  0.71505788  0.33005881     0.07470
C485        C  0.63467252  0.70519091  0.33579774    -0.05630
H486        H  0.65006945  0.71562795  0.31071462     0.08140
H487        H  0.63064991  0.70513683  0.34536610     0.09340
Cu488      Cu  0.64165396  0.68636673  0.30103977     0.44170
Cu489      Cu  0.62429004  0.67807408  0.32986125     0.41990
Cu490      Cu  0.62578948  0.65535054  0.30349919     0.43880
N491        N  0.64257350  0.67219952  0.28700749    -0.34280
N492        N  0.63666601  0.66095489  0.28782635    -0.28540
C493        C  0.63923348  0.65400769  0.27723108    -0.04640
C494        C  0.64710567  0.66124859  0.26934577     0.07580
C495        C  0.64912389  0.67266918  0.27591093     0.01370
H496        H  0.63583226  0.64430522  0.27552265     0.09030
H497        H  0.65493881  0.68073349  0.27284867     0.08100
N498        N  0.61589055  0.65195484  0.32040364    -0.35730
N499        N  0.61529575  0.66028492  0.32998762    -0.27910
C500        C  0.60827234  0.65518172  0.33952263    -0.03150
C501        C  0.60439868  0.64294654  0.33585806     0.05460
C502        C  0.60930795  0.64129795  0.32361494     0.03550
H503        H  0.60614663  0.66006471  0.34844802     0.08660
H504        H  0.60835377  0.63287806  0.31755443     0.07490
N505        N  0.52622890  0.58888882  0.39715039    -0.26900
N506        N  0.52506187  0.57722375  0.40209631    -0.34760
C507        C  0.51430710  0.57669184  0.40913859     0.01440
C508        C  0.50857388  0.58866393  0.40880766     0.07470
C509        C  0.51622806  0.59610989  0.40093641    -0.05630
H510        H  0.51092084  0.56821744  0.41413879     0.08140
H511        H  0.51465221  0.60602477  0.39817347     0.09340
Cu512      Cu  0.53837466  0.56270689  0.39970956     0.44170
Cu513      Cu  0.54151196  0.59443817  0.38575454     0.41990
Cu514      Cu  0.56812086  0.57185470  0.38485919     0.43880
N515        N  0.55410523  0.55069278  0.39866022    -0.34280
N516        N  0.56520317  0.55421205  0.39370003    -0.28540
C517        C  0.57370111  0.54463692  0.39536348    -0.04640
C518        C  0.56768249  0.53458372  0.40174662     0.07580
C519        C  0.55518316  0.53874857  0.40348222     0.01370
H520        H  0.58359551  0.54507549  0.39231525     0.09030
H521        H  0.54739075  0.53355647  0.40794878     0.08100
N522        N  0.56810125  0.58953782  0.37561986    -0.35730
N523        N  0.55832112  0.59763604  0.37569461    -0.27910
C524        C  0.56136540  0.60807313  0.36868042    -0.03150
C525        C  0.57361726  0.60640889  0.36400267     0.05460
C526        C  0.57765725  0.59464047  0.36863015     0.03550
H527        H  0.55521997  0.61634199  0.36730319     0.08660
H528        H  0.58687189  0.59014343  0.36707939     0.07490
N529        N  0.56596397  0.94566374  0.89395018    -0.26900
N530        N  0.55484820  0.94921482  0.89889374    -0.34760
C531        C  0.55602169  0.96116092  0.90378057     0.01440
C532        C  0.56851887  0.96523448  0.90200838     0.07470
C533        C  0.57453982  0.95520610  0.89568378    -0.05630
H534        H  0.54841221  0.96639126  0.90851259     0.08140
H535        H  0.58440398  0.95489680  0.89251799     0.09340
Cu536      Cu  0.53881702  0.93736092  0.89957424     0.44170
Cu537      Cu  0.56894045  0.92806122  0.88496127     0.41990
Cu538      Cu  0.54265986  0.90525711  0.88662910     0.43880
N539        N  0.52499420  0.92303730  0.90108881    -0.34280
N540        N  0.52658787  0.91116249  0.89677446    -0.28540
C541        C  0.51626705  0.90405629  0.89993388    -0.04640
C542        C  0.50769528  0.91189734  0.90635223     0.07580
C543        C  0.51355077  0.92384651  0.90696197     0.01370
H544        H  0.51504985  0.89396028  0.89764583     0.09030
H545        H  0.50987310  0.93242449  0.91156015     0.08100
N546        N  0.55952171  0.90187076  0.87661925    -0.35730
N547        N  0.56918507  0.91012268  0.87612967    -0.27910
C548        C  0.57871757  0.90494213  0.86913791    -0.03150
C549        C  0.57483040  0.89288923  0.86505609     0.05460
C550        C  0.56261594  0.89125470  0.86989291     0.03550
H551        H  0.58781326  0.90957084  0.86723834     0.08660
H552        H  0.55651345  0.88289282  0.86877528     0.07490
N553        N  0.63296406  0.80415846  0.82601234    -0.26900
N554        N  0.64068816  0.80185291  0.81622811    -0.34760
C555        C  0.64643824  0.79040880  0.81800805     0.01440
C556        C  0.64213937  0.78525922  0.82947269     0.07470
C557        C  0.63350376  0.79416738  0.83422649    -0.05630
H558        H  0.65317636  0.78610622  0.81139303     0.08140
H559        H  0.62816392  0.79352605  0.84309955     0.09340
Cu560      Cu  0.64296952  0.81428328  0.80081740     0.44170
Cu561      Cu  0.62252806  0.82107478  0.82793460     0.41990
Cu562      Cu  0.62644586  0.84483707  0.80255812     0.43880
N563        N  0.64361835  0.82807106  0.78642967    -0.34280
N564        N  0.63764806  0.83926742  0.78706071    -0.28540
C565        C  0.64016906  0.84602188  0.77633336    -0.04640
C566        C  0.64801416  0.83867172  0.76847725     0.07580
C567        C  0.65005237  0.82738499  0.77527992     0.01370
H568        H  0.63673263  0.85567792  0.77453712     0.09030
H569        H  0.65579651  0.81923530  0.77234845     0.08100
N570        N  0.61569337  0.84791423  0.81903869    -0.35730
N571        N  0.61417014  0.83922732  0.82818583    -0.27910
C572        C  0.60683975  0.84426913  0.83752555    -0.03150
C573        C  0.60348914  0.85671933  0.83409913     0.05460
C574        C  0.60939404  0.85871476  0.82234566     0.03550
H575        H  0.60418204  0.83923057  0.84621352     0.08660
H576        H  0.60937503  0.86745952  0.81670984     0.07490
N577        N  0.60214193  0.96736064  0.59397324    -0.26900
N578        N  0.59657547  0.96834194  0.58259708    -0.34760
C579        C  0.58990625  0.97938804  0.58211587     0.01440
C580        C  0.59103175  0.98548942  0.59386818     0.07470
C581        C  0.59906136  0.97774122  0.60107944    -0.05630
H582        H  0.58458552  0.98270036  0.57382470     0.08140
H583        H  0.60235002  0.97947942  0.61079112     0.09340
Cu584      Cu  0.59775590  0.95445033  0.56837226     0.44170
Cu585      Cu  0.61352528  0.95184650  0.59921780     0.41990
Cu586      Cu  0.61777547  0.92694369  0.57492504     0.43880
N587        N  0.60006275  0.93928145  0.55566786    -0.34280
N588        N  0.60768432  0.92938686  0.55788378    -0.28540
C589        C  0.60720766  0.92136595  0.54774739    -0.04640
C590        C  0.59886355  0.92642510  0.53865152     0.07580
C591        C  0.59440298  0.93774135  0.54415542     0.01370
H592        H  0.61253929  0.91246468  0.54709619     0.09030
H593        H  0.58735153  0.94429588  0.54027861     0.08100
N594        N  0.62569318  0.92614130  0.59323172    -0.35730
N595        N  0.62410020  0.93516495  0.60205476    -0.27910
C596        C  0.63009481  0.93153750  0.61290617    -0.03150
C597        C  0.63563290  0.91959040  0.61089856     0.05460
C598        C  0.63274540  0.91654004  0.59825322     0.03550
H599        H  0.63019291  0.93708977  0.62170602     0.08660
H600        H  0.63553558  0.90796662  0.59305830     0.07490
N601        N  0.71311341  0.85767016  0.66530021    -0.26900
N602        N  0.71431810  0.85248665  0.67682596    -0.34760
C603        C  0.72524664  0.84564886  0.67726419     0.01440
C604        C  0.73117559  0.84647816  0.66539760     0.07470
C605        C  0.72326441  0.85430233  0.65810647    -0.05630
H606        H  0.72863112  0.84049129  0.68563049     0.08140
H607        H  0.72468873  0.85718932  0.64822936     0.09340
Cu608      Cu  0.70077147  0.85450813  0.69123416     0.44170
Cu609      Cu  0.69749715  0.86871383  0.65980681     0.41990
Cu610      Cu  0.67074248  0.86934951  0.68214543     0.43880
N611        N  0.68502758  0.85571213  0.70329557    -0.34280
N612        N  0.67386021  0.86051606  0.69979483    -0.28540
C613        C  0.66548135  0.85893699  0.70946150    -0.04640
C614        C  0.67162442  0.85285472  0.71969621     0.07580
C615        C  0.68412499  0.85117440  0.71533685     0.01370
H616        H  0.65558379  0.86194111  0.70892089     0.09030
H617        H  0.69218139  0.84708354  0.72037257     0.08100
N618        N  0.67076620  0.87871029  0.66449213    -0.35730
N619        N  0.68059212  0.87865400  0.65647496    -0.27910
C620        C  0.67761714  0.88573608  0.64607212    -0.03150
C621        C  0.66536889  0.89047347  0.64765805     0.05460
C622        C  0.66125594  0.88579030  0.65936531     0.03550
H623        H  0.68384547  0.88719117  0.63790619     0.08660
H624        H  0.65203811  0.88740110  0.66381958     0.07490
N625        N  0.15641630  0.28193217  0.86207591    -0.26900
N626        N  0.16779834  0.28076985  0.85665552    -0.34760
C627        C  0.16850537  0.26925168  0.85080411     0.01440
C628        C  0.15707343  0.26275150  0.85276989     0.07470
C629        C  0.14959280  0.27116087  0.85984871    -0.05630
H630        H  0.17670770  0.26593449  0.84540113     0.08140
H631        H  0.13991820  0.26955094  0.86320865     0.09340
Cu632      Cu  0.18198440  0.29472009  0.85759314     0.44170
Cu633      Cu  0.15068655  0.29801859  0.87234262     0.41990
Cu634      Cu  0.17499666  0.32235547  0.87750390     0.43880
N635        N  0.19471757  0.30977100  0.86051583    -0.34280
N636        N  0.19213936  0.31987869  0.86779528    -0.28540
C637        C  0.20218888  0.32799068  0.86755010    -0.04640
C638        C  0.21164109  0.32258129  0.85999124     0.07580
C639        C  0.20650912  0.31115213  0.85549548     0.01370
H640        H  0.20253803  0.33720653  0.87240173     0.09030
H641        H  0.21096539  0.30440157  0.84896912     0.08100
N642        N  0.15669833  0.32333157  0.88514272    -0.35730
N643        N  0.14768230  0.31467674  0.88287543    -0.27910
C644        C  0.13677793  0.31845122  0.88859298    -0.03150
C645        C  0.13898277  0.33009381  0.89477233     0.05460
C646        C  0.15182037  0.33275446  0.89250927     0.03550
H647        H  0.12786799  0.31312673  0.88816860     0.08660
H648        H  0.15730585  0.34088995  0.89598332     0.07490
N649        N  0.04997169  0.38743368  0.93357770    -0.26900
N650        N  0.04724038  0.39427689  0.94392311    -0.34760
C651        C  0.03553890  0.39948330  0.94254099     0.01440
C652        C  0.03056974  0.39570207  0.93078207     0.07470
C653        C  0.04006898  0.38815888  0.92530567    -0.05630
H654        H  0.03100412  0.40563404  0.94958181     0.08140
H655        H  0.03992888  0.38372479  0.91589948     0.09340
Cu656      Cu  0.05965999  0.39677106  0.95926722     0.44170
Cu657      Cu  0.06715512  0.37764570  0.93115990     0.41990
Cu658      Cu  0.09107472  0.38279295  0.95609189     0.43880
N659        N  0.07397054  0.39879240  0.97293052    -0.34280
N660        N  0.08552588  0.39375511  0.97172256    -0.28540
C661        C  0.09258991  0.39690334  0.98207640    -0.04640
C662        C  0.08515262  0.40440810  0.99014146     0.07580
C663        C  0.07336312  0.40528969  0.98408322     0.01370
H664        H  0.10236832  0.39383209  0.98366344     0.09030
H665        H  0.06498149  0.41037218  0.98747698     0.08100
N666        N  0.09408060  0.37158982  0.93993020    -0.35730
N667        N  0.08526881  0.36935945  0.93104068    -0.27910
C668        C  0.09021178  0.36146998  0.92207231    -0.03150
C669        C  0.10271417  0.35870834  0.92548921     0.05460
C670        C  0.10490276  0.36534092  0.93677497     0.03550
H671        H  0.08518395  0.35822734  0.91356121     0.08660
H672        H  0.11369543  0.36559575  0.94229725     0.07490
N673        N  0.13392269  0.19472412  0.82750084    -0.26900
N674        N  0.14183173  0.19694900  0.81783965    -0.34760
C675        C  0.14721723  0.20861598  0.81937333     0.01440
C676        C  0.14230352  0.21405583  0.83040544     0.07470
C677        C  0.13393195  0.20501831  0.83536236    -0.05630
H678        H  0.15410717  0.21286425  0.81287755     0.08140
H679        H  0.12843440  0.20577647  0.84412829     0.09340
Cu680      Cu  0.14468666  0.18434283  0.80273241     0.44170
Cu681      Cu  0.12392101  0.17759391  0.82979914     0.41990
Cu682      Cu  0.12703842  0.15448413  0.80389385     0.43880
N683        N  0.14501045  0.17076241  0.78819986    -0.34280
N684        N  0.13848142  0.15985956  0.78860242    -0.28540
C685        C  0.14066215  0.15318742  0.77776657    -0.04640
C686        C  0.14887665  0.16028443  0.77010124     0.07580
C687        C  0.15152264  0.17133293  0.77709044     0.01370
H688        H  0.13654841  0.14385482  0.77562687     0.09030
H689        H  0.15786520  0.17912952  0.77441874     0.08100
N690        N  0.11649383  0.15113810  0.82036551    -0.35730
N691        N  0.11550490  0.15947265  0.82991820    -0.27910
C692        C  0.10842610  0.15417742  0.83931469    -0.03150
C693        C  0.10464055  0.14200677  0.83540427     0.05460
C694        C  0.10998639  0.14037473  0.82337121     0.03550
H695        H  0.10617035  0.15885391  0.84832094     0.08660
H696        H  0.10955234  0.13187360  0.81738515     0.07490
N697        N  0.02674303  0.08789291  0.89710325    -0.26900
N698        N  0.02621243  0.07684304  0.90337235    -0.34760
C699        C  0.01514143  0.07625134  0.90992192     0.01440
C700        C  0.00828349  0.08742195  0.90761203     0.07470
C701        C  0.01601217  0.09463886  0.89952616    -0.05630
H702        H  0.01229585  0.06825786  0.91593964     0.08140
H703        H  0.01410439  0.10418969  0.89585370     0.09340
Cu704      Cu  0.04061959  0.06312873  0.90299279     0.44170
Cu705      Cu  0.04219848  0.09335434  0.88580369     0.41990
Cu706      Cu  0.06883052  0.07081468  0.88456040     0.43880
N707        N  0.05621257  0.05091764  0.90124643    -0.34280
N708        N  0.06648838  0.05365465  0.89436723    -0.28540
C709        C  0.07477707  0.04377661  0.89512433    -0.04640
C710        C  0.06953463  0.03444197  0.90301058     0.07580
C711        C  0.05770777  0.03925510  0.90662447     0.01370
H712        H  0.08400606  0.04348921  0.89041669     0.09030
H713        H  0.05063891  0.03458340  0.91261909     0.08100
N714        N  0.06896685  0.08872286  0.87586027    -0.35730
N715        N  0.05917113  0.09680023  0.87600071    -0.27910
C716        C  0.06238363  0.10747878  0.86943713    -0.03150
C717        C  0.07482054  0.10606920  0.86514907     0.05460
C718        C  0.07871991  0.09410041  0.86935945     0.03550
H719        H  0.05624943  0.11577410  0.86817100     0.08660
H720        H  0.08796806  0.08965342  0.86786565     0.07490
N721        N  0.94037447  0.10986072  0.93388807    -0.26900
N722        N  0.94171259  0.10062564  0.94248814    -0.34760
C723        C  0.95319560  0.09499679  0.94088207     0.01440
C724        C  0.95961831  0.10117913  0.93095403     0.07470
C725        C  0.95105416  0.11049717  0.92671685    -0.05630
H726        H  0.95646848  0.08688629  0.94648929     0.08140
H727        H  0.95243482  0.11728812  0.91897240     0.09340
Cu728      Cu  0.92826573  0.09686483  0.95666081     0.44170
Cu729      Cu  0.92385155  0.12078910  0.93202943     0.41990
Cu730      Cu  0.90080557  0.11838265  0.95782809     0.43880
N731        N  0.91534076  0.09750692  0.97177297    -0.34280
N732        N  0.90572153  0.10573476  0.97250026    -0.28540
C733        C  0.89982672  0.10422364  0.98387907    -0.04640
C734        C  0.90602755  0.09458197  0.99072163     0.07580
C735        C  0.91571073  0.09044692  0.98258131     0.01370
H736        H  0.89163633  0.10980280  0.98693881     0.09030
H737        H  0.92251863  0.08279308  0.98426289     0.08100
N738        N  0.89772522  0.12907308  0.94122982    -0.35730
N739        N  0.90612869  0.12981709  0.93177395    -0.27910
C740        C  0.90111421  0.13688538  0.92219155    -0.03150
C741        C  0.88907156  0.14103508  0.92587395     0.05460
C742        C  0.88715523  0.13571819  0.93791509     0.03550
H743        H  0.90574265  0.13846692  0.91304419     0.08660
H744        H  0.87862937  0.13648802  0.94375986     0.07490
N745        N  0.83301243  0.21868731  0.86485986    -0.26900
N746        N  0.82218781  0.21914029  0.85825658    -0.34760
C747        C  0.82182925  0.23014267  0.85147235     0.01440
C748        C  0.83290915  0.23707182  0.85396350     0.07470
C749        C  0.83980513  0.22946788  0.86247903    -0.05630
H750        H  0.81409819  0.23284414  0.84508315     0.08140
H751        H  0.84927790  0.23135663  0.86627381     0.09340
Cu752      Cu  0.80851402  0.20463918  0.85836143     0.44170
Cu753      Cu  0.83831613  0.20291937  0.87605309     0.41990
Cu754      Cu  0.81746707  0.17484662  0.87375125     0.43880
N755        N  0.79632971  0.18894064  0.85994437    -0.34280
N756        N  0.79962218  0.17798855  0.86549069    -0.28540
C757        C  0.78959350  0.16983988  0.86506953    -0.04640
C758        C  0.77944595  0.17599421  0.85906389     0.07580
C759        C  0.78413613  0.18805159  0.85582898     0.01370
H760        H  0.78965332  0.16018069  0.86895776     0.09030
H761        H  0.77911460  0.19559404  0.85073222     0.08100
N762        N  0.83484207  0.17496902  0.88349711    -0.35730
N763        N  0.84202796  0.18534482  0.88498106    -0.27910
C764        C  0.85205527  0.18238480  0.89254899    -0.03150
C765        C  0.85128265  0.16944913  0.89601755     0.05460
C766        C  0.84025791  0.16508951  0.88983521     0.03550
H767        H  0.85936766  0.18925272  0.89527630     0.08660
H768        H  0.83641379  0.15543387  0.88967457     0.07490
N769        N  0.68981097  0.32310862  0.64413999    -0.26900
N770        N  0.69258202  0.31270695  0.65090772    -0.34760
C771        C  0.70414289  0.31426364  0.65642223     0.01440
C772        C  0.70887303  0.32625277  0.65302797     0.07470
C773        C  0.69958252  0.33152948  0.64511565    -0.05630
H774        H  0.70882384  0.30710577  0.66233343     0.08140
H775        H  0.69984793  0.34085808  0.64050230     0.09340
Cu776      Cu  0.68061806  0.29680195  0.65239406     0.44170
Cu777      Cu  0.67276709  0.32548618  0.63411454     0.41990
Cu778      Cu  0.64975292  0.29945751  0.63683889     0.43880
N779        N  0.66681896  0.28240386  0.65284097    -0.34280
N780        N  0.65541862  0.28352748  0.64740309    -0.28540
C781        C  0.64852475  0.27286245  0.64985190    -0.04640
C782        C  0.65606912  0.26444564  0.65685384     0.07580
C783        C  0.66751429  0.27092990  0.65879256     0.01370
H784        H  0.63862620  0.27152366  0.64703836     0.09030
H785        H  0.67566770  0.26763011  0.66431276     0.08100
N786        N  0.64659140  0.31599478  0.62614892    -0.35730
N787        N  0.65491095  0.32557126  0.62529763    -0.27910
C788        C  0.64983593  0.33495361  0.61799624    -0.03150
C789        C  0.63781377  0.33102764  0.61390819     0.05460
C790        C  0.63606072  0.31897139  0.61930320     0.03550
H791        H  0.65456664  0.34396427  0.61580130     0.08660
H792        H  0.62763142  0.31293298  0.61860136     0.07490
N793        N  0.58189079  0.39230324  0.53674359    -0.26900
N794        N  0.57135831  0.39935118  0.53671744    -0.34760
C795        C  0.57092113  0.40629132  0.52582374     0.01440
C796        C  0.58162237  0.40335400  0.51850825     0.07470
C797        C  0.58839014  0.39451363  0.52583291    -0.05630
H798        H  0.56346354  0.41315059  0.52356188     0.08140
H799        H  0.59743244  0.39003545  0.52344667     0.09340
Cu800      Cu  0.55802038  0.39913766  0.55144738     0.44170
Cu801      Cu  0.58733211  0.38050364  0.55187933     0.41990
Cu802      Cu  0.56552775  0.37900441  0.57881601     0.43880
N803        N  0.54575339  0.39637302  0.56684272    -0.34280
N804        N  0.54834707  0.38873860  0.57667168    -0.28540
C805        C  0.53838908  0.38886251  0.58485544    -0.04640
C806        C  0.52919491  0.39706514  0.57997070     0.07580
C807        C  0.53413110  0.40166969  0.56856979     0.01370
H808        H  0.53800224  0.38361125  0.59381612     0.09030
H809        H  0.52963196  0.40838928  0.56203613     0.08100
N810        N  0.58352761  0.37062737  0.57883018    -0.35730
N811        N  0.59137287  0.37087214  0.56886945    -0.27910
C812        C  0.60221869  0.36459253  0.57195563    -0.03150
C813        C  0.60115165  0.36035604  0.58448073     0.05460
C814        C  0.58921430  0.36431526  0.58856647     0.03550
H815        H  0.61037325  0.36345115  0.56565869     0.08660
H816        H  0.58499045  0.36276364  0.59791949     0.07490
N817        N  0.92422923  0.44646787  0.89416856    -0.26900
N818        N  0.93376822  0.44865422  0.90225934    -0.34760
C819        C  0.93240933  0.46048627  0.90733824     0.01440
C820        C  0.92154214  0.46610538  0.90211770     0.07470
C821        C  0.91653794  0.45685375  0.89390365    -0.05630
H822        H  0.93880068  0.46461774  0.91443073     0.08140
H823        H  0.90794650  0.45762035  0.88811983     0.09340
Cu824      Cu  0.94841665  0.43561948  0.90578059     0.44170
Cu825      Cu  0.92206650  0.42939598  0.88397695     0.41990
Cu826      Cu  0.94831443  0.40669015  0.88636537     0.43880
N827        N  0.96321386  0.42229136  0.90571477    -0.34280
N828        N  0.96353207  0.41217790  0.89803955    -0.28540
C829        C  0.97473208  0.40602196  0.89970715    -0.04640
C830        C  0.98190331  0.41247494  0.90900038     0.07580
C831        C  0.97406611  0.42266640  0.91268242     0.01370
H832        H  0.97733902  0.39738834  0.89453226     0.09030
H833        H  0.97582028  0.42976719  0.92005796     0.08100
N834        N  0.93129830  0.40283350  0.87671025    -0.35730
N835        N  0.92181526  0.41120580  0.87566383    -0.27910
C836        C  0.91221663  0.40579739  0.86889405    -0.03150
C837        C  0.91573096  0.39335308  0.86570378     0.05460
C838        C  0.92792579  0.39183021  0.87074171     0.03550
H839        H  0.90325909  0.41051304  0.86661534     0.08660
H840        H  0.93394409  0.38338149  0.87004236     0.07490
N841        N  0.85200145  0.33952100  0.78741746    -0.26900
N842        N  0.84470128  0.32910159  0.78744342    -0.34760
C843        C  0.83764032  0.32889116  0.77661466     0.01440
C844        C  0.84065604  0.33970211  0.76944791     0.07470
C845        C  0.84988052  0.34615795  0.77652418    -0.05630
H846        H  0.83085877  0.32140015  0.77410991     0.08140
H847        H  0.85452273  0.35514324  0.77405681     0.09340
Cu848      Cu  0.84497490  0.31554803  0.80212227     0.44170
Cu849      Cu  0.86406031  0.34444619  0.80249463     0.41990
Cu850      Cu  0.86761414  0.32115808  0.82819026     0.43880
N851        N  0.84819188  0.30263951  0.81703201    -0.34280
N852        N  0.85680373  0.30439737  0.82618784    -0.28540
C853        C  0.85686926  0.29399799  0.83388888    -0.04640
C854        C  0.84783275  0.28518672  0.82943594     0.07580
C855        C  0.84241603  0.29119417  0.81880203     0.01370
H856        H  0.86307057  0.29298831  0.84216001     0.09030
H857        H  0.83465625  0.28772788  0.81284223     0.08100
N858        N  0.87617614  0.33928803  0.82832050    -0.35730
N859        N  0.87476307  0.34773657  0.81897648    -0.27910
C860        C  0.88101039  0.35861808  0.82208789    -0.03150
C861        C  0.88684066  0.35710007  0.83404761     0.05460
C862        C  0.88342336  0.34460096  0.83762122     0.03550
H863        H  0.88099168  0.36693919  0.81589918     0.08660
H864        H  0.88574958  0.33968984  0.84647135     0.07490
N865        N  0.88374503  0.42809262  0.55780029    -0.26900
N866        N  0.89026858  0.43865945  0.55507011    -0.34760
C867        C  0.89561760  0.43739345  0.54341450     0.01440
C868        C  0.89250354  0.42535436  0.53859461     0.07470
C869        C  0.88481865  0.41978965  0.54792386    -0.05630
H870        H  0.90134134  0.44474297  0.53880317     0.08140
H871        H  0.88047312  0.41032550  0.54763572     0.09340
Cu872      Cu  0.89219655  0.45416911  0.56741042     0.44170
Cu873      Cu  0.87395619  0.42544178  0.57497808     0.41990
Cu874      Cu  0.87567231  0.45225678  0.59758095     0.43880
N875        N  0.89362409  0.46812358  0.58153486    -0.34280
N876        N  0.88734337  0.46759125  0.59252580    -0.28540
C877        C  0.89021466  0.47810329  0.59953198    -0.04640
C878        C  0.89887197  0.48550212  0.59268230     0.07580
C879        C  0.90075652  0.47890756  0.58128540     0.01370
H880        H  0.88639777  0.48013532  0.60897214     0.09030
H881        H  0.90667707  0.48182918  0.57328364     0.08100
N882        N  0.86603416  0.43516533  0.60114859    -0.35730
N883        N  0.86549372  0.42534652  0.59304765    -0.27910
C884        C  0.85898156  0.41563038  0.59859223    -0.03150
C885        C  0.85542050  0.41950573  0.61077441     0.05460
C886        C  0.85987428  0.43197625  0.61201874     0.03550
H887        H  0.85709716  0.40639744  0.59414055     0.08660
H888        H  0.85887319  0.43821064  0.62028879     0.07490
N889        N  0.81680695  0.36183089  0.70036251    -0.26900
N890        N  0.80723207  0.35375011  0.70248055    -0.34760
C891        C  0.80900736  0.34803088  0.71392746     0.01440
C892        C  0.82031104  0.35259436  0.71927108     0.07470
C893        C  0.82491497  0.36144657  0.71043094    -0.05630
H894        H  0.80257410  0.34095986  0.71800853     0.08140
H895        H  0.83348870  0.36726027  0.71126690     0.09340
Cu896      Cu  0.79209028  0.35069109  0.68983525     0.44170
Cu897      Cu  0.81871125  0.37271383  0.68369273     0.41990
Cu898      Cu  0.79352353  0.36831537  0.66019549     0.43880
N899        N  0.77771548  0.35008940  0.67600590    -0.34280
N900        N  0.77802557  0.35706537  0.66543565    -0.28540
C901        C  0.76710450  0.35524294  0.65882441    -0.04640
C902        C  0.75955024  0.34632672  0.66531228     0.07580
C903        C  0.76668196  0.34339295  0.67625422     0.01370
H904        H  0.76490483  0.36035019  0.65007723     0.09030
H905        H  0.76410977  0.33687624  0.68391931     0.08100
N906        N  0.81005410  0.37875235  0.65673176    -0.35730
N907        N  0.81904016  0.38085038  0.66543625    -0.27910
C908        C  0.82825152  0.38823475  0.66020008    -0.03150
C909        C  0.82495208  0.39091345  0.64753159     0.05460
C910        C  0.81340115  0.38451903  0.64568965     0.03550
H911        H  0.83676441  0.39135610  0.66527276     0.08660
H912        H  0.80787563  0.38380101  0.63692762     0.07490
N913        N  0.94186713  0.88883661  0.57673179    -0.26900
N914        N  0.94518171  0.89431875  0.56576438    -0.34760
C915        C  0.95691804  0.89954397  0.56707354     0.01440
C916        C  0.96106413  0.89742358  0.57950952     0.07470
C917        C  0.95133148  0.89056338  0.58535383    -0.05630
H918        H  0.96193294  0.90475632  0.55962077     0.08140
H919        H  0.95115835  0.88705171  0.59513271     0.09340
Cu920      Cu  0.93321593  0.89541940  0.54985381     0.44170
Cu921      Cu  0.92463320  0.87932374  0.57958063     0.41990
Cu922      Cu  0.90056278  0.88526477  0.55544945     0.43880
N923        N  0.91851326  0.89772038  0.53659837    -0.34280
N924        N  0.90647469  0.89467763  0.53898000    -0.28540
C925        C  0.89918541  0.89806161  0.52889015    -0.04640
C926        C  0.90701126  0.90327944  0.51941326     0.07580
C927        C  0.91923485  0.90292679  0.52481539     0.01370
H928        H  0.88891291  0.89690567  0.52877804     0.09030
H929        H  0.92810487  0.90619446  0.52057278     0.08100
N930        N  0.89760690  0.87361469  0.57128753    -0.35730
N931        N  0.90652218  0.87111668  0.57995149    -0.27910
C932        C  0.90174858  0.86283639  0.58864158    -0.03150
C933        C  0.88920671  0.85991031  0.58526076     0.05460
C934        C  0.88689909  0.86708209  0.57427234     0.03550
H935        H  0.90704675  0.85922190  0.59681680     0.08660
H936        H  0.87804613  0.86768331  0.56888770     0.07490
N937        N  0.79928721  0.82117825  0.64134543    -0.26900
N938        N  0.79791712  0.81276329  0.65074286    -0.34760
C939        C  0.78685758  0.81513333  0.65688245     0.01440
C940        C  0.78082814  0.82555720  0.65109147     0.07470
C941        C  0.78900109  0.82896978  0.64111207    -0.05630
H942        H  0.78353429  0.80964231  0.66504363     0.08140
H943        H  0.78764598  0.83646498  0.63405640     0.09340
Cu944      Cu  0.81084158  0.79807864  0.65456251     0.44170
Cu945      Cu  0.81565727  0.82245629  0.63008975     0.41990
Cu946      Cu  0.84044626  0.79893252  0.63703111     0.43880
N947        N  0.82453392  0.78363563  0.65553780    -0.34280
N948        N  0.83529552  0.78383181  0.64887787    -0.28540
C949        C  0.84189767  0.77296918  0.65122147    -0.04640
C950        C  0.83503398  0.76563775  0.65991537     0.07580
C951        C  0.82402933  0.77266966  0.66237252     0.01370
H952        H  0.85106228  0.77063207  0.64698078     0.09030
H953        H  0.81609891  0.76991257  0.66845747     0.08100
N954        N  0.84333133  0.81517676  0.62593362    -0.35730
N955        N  0.83421892  0.82351525  0.62297304    -0.27910
C956        C  0.83929466  0.83292463  0.61569328    -0.03150
C957        C  0.85221410  0.83043693  0.61420669     0.05460
C958        C  0.85445915  0.81912205  0.62077137     0.03550
H959        H  0.83406118  0.84115034  0.61207917     0.08660
H960        H  0.86351025  0.81414764  0.62176306     0.07490
N961        N  0.85186643  0.66068275  0.72180998    -0.26900
N962        N  0.84605223  0.67195455  0.72253890    -0.34760
C963        C  0.83998048  0.67279298  0.73387696     0.01440
C964        C  0.84209410  0.66152231  0.74067902     0.07470
C965        C  0.84957845  0.65401473  0.73263562    -0.05630
H966        H  0.83437489  0.68100219  0.73691247     0.08140
H967        H  0.85291116  0.64430967  0.73437091     0.09340
Cu968      Cu  0.84635596  0.68559232  0.70800513     0.44170
Cu969      Cu  0.86265414  0.65493571  0.70614273     0.41990
Cu970      Cu  0.86708604  0.67894956  0.68116004     0.43880
N971        N  0.84866355  0.69796931  0.69256467    -0.34280
N972        N  0.85670579  0.69581901  0.68304033    -0.28540
C973        C  0.85645171  0.70590081  0.67495507    -0.04640
C974        C  0.84753260  0.71477717  0.67938995     0.07580
C975        C  0.84288727  0.70936241  0.69066642     0.01370
H976        H  0.86254305  0.70668997  0.66661714     0.09030
H977        H  0.83581807  0.71337069  0.69710360     0.08100
N978        N  0.87502782  0.66069367  0.68064932    -0.35730
N979        N  0.87338174  0.65192331  0.68969400    -0.27910
C980        C  0.87962840  0.64112268  0.68632545    -0.03150
C981        C  0.88556265  0.64322563  0.67462781     0.05460
C982        C  0.88232711  0.65569916  0.67127544     0.03550
H983        H  0.87967178  0.63233843  0.69190410     0.08660
H984        H  0.88509813  0.66080007  0.66265854     0.07490
N985        N  0.92321399  0.55469177  0.61521785    -0.26900
N986        N  0.93279797  0.55244895  0.60727652    -0.34760
C987        C  0.93082737  0.54106059  0.60144710     0.01440
C988        C  0.91944491  0.53576760  0.60596142     0.07470
C989        C  0.91504347  0.54468958  0.61486560    -0.05630
H990        H  0.93726358  0.53699153  0.59440874     0.08140
H991        H  0.90664942  0.54401518  0.62087621     0.09340
Cu992      Cu  0.94833111  0.56476210  0.60509996     0.44170
Cu993      Cu  0.92114660  0.57155774  0.62558614     0.41990
Cu994      Cu  0.94599195  0.59545543  0.62145146     0.43880
N995        N  0.96254890  0.57875890  0.60466146    -0.34280
N996        N  0.96149023  0.59011130  0.61028537    -0.28540
C997        C  0.97199319  0.59715226  0.60772079    -0.04640
C998        C  0.98029074  0.58979244  0.60034677     0.07580
C999        C  0.97386660  0.57819840  0.59854918     0.01370
H1000       H  0.97329473  0.60699996  0.61084290     0.09030
H1001       H  0.97713487  0.56991582  0.59317546     0.08100
N1002       N  0.92965019  0.59843428  0.63228222    -0.35730
N1003       N  0.92048856  0.58973687  0.63369532    -0.27910
C1004       C  0.91100156  0.59480238  0.64080616    -0.03150
C1005       C  0.91441901  0.60724394  0.64399711     0.05460
C1006       C  0.92630330  0.60923894  0.63854576     0.03550
H1007       H  0.90223996  0.58984500  0.64334448     0.08660
H1008       H  0.93197864  0.61796239  0.63889670     0.07490
N1009       N  0.65604520  0.21711365  0.14956758    -0.26900
N1010       N  0.66775668  0.21846543  0.15428463    -0.34760
C1011       C  0.66851765  0.22976835  0.16057738     0.01440
C1012       C  0.65667205  0.23566349  0.15993626     0.07470
C1013       C  0.64899482  0.22742176  0.15288493    -0.05630
H1014       H  0.67699228  0.23332534  0.16543308     0.08140
H1015       H  0.63906277  0.22886291  0.15025795     0.09340
Cu1016     Cu  0.68198760  0.20461639  0.15254053     0.44170
Cu1017     Cu  0.65017639  0.20152918  0.13856497     0.41990
Cu1018     Cu  0.67300697  0.17561899  0.13540248     0.43880
N1019       N  0.69396151  0.18879122  0.15049193    -0.34280
N1020       N  0.69058696  0.17813525  0.14437311    -0.28540
C1021       C  0.70028841  0.16963996  0.14497137    -0.04640
C1022       C  0.71025684  0.17528639  0.15167558     0.07580
C1023       C  0.70592713  0.18736849  0.15512602     0.01370
H1024       H  0.70010025  0.16007957  0.14083085     0.09030
H1025       H  0.71104638  0.19454806  0.16066886     0.08100
N1026       N  0.65515476  0.17561161  0.12663296    -0.35730
N1027       N  0.64682942  0.18514772  0.12766514    -0.27910
C1028       C  0.63627273  0.18223143  0.12079659    -0.03150
C1029       C  0.63811778  0.17032951  0.11517242     0.05460
C1030       C  0.65010840  0.16634447  0.11913494     0.03550
H1031       H  0.62783894  0.18823944  0.12009656     0.08660
H1032       H  0.65478798  0.15735338  0.11679985     0.07490
N1033       N  0.54963167  0.11009246  0.07799280    -0.26900
N1034       N  0.54657392  0.10391239  0.06733645    -0.34760
C1035       C  0.53461523  0.09926223  0.06842191     0.01440
C1036       C  0.52984520  0.10260150  0.08040601     0.07470
C1037       C  0.53977746  0.10933987  0.08626075    -0.05630
H1038       H  0.52975778  0.09389163  0.06094887     0.08140
H1039       H  0.53997345  0.11331334  0.09585960     0.09340
Cu1040     Cu  0.55892181  0.10181168  0.05195969     0.44170
Cu1041     Cu  0.56684961  0.11971953  0.08035126     0.41990
Cu1042     Cu  0.58888586  0.11936674  0.05311015     0.43880
N1043       N  0.57245873  0.10128448  0.03747838    -0.34280
N1044       N  0.58315537  0.10809568  0.03756497    -0.28540
C1045       C  0.58951287  0.10588780  0.02654944    -0.04640
C1046       C  0.58250658  0.09721237  0.01913297     0.07580
C1047       C  0.57184043  0.09439282  0.02656996     0.01370
H1048       H  0.59863007  0.11023977  0.02418967     0.09030
H1049       H  0.56425210  0.08762105  0.02444111     0.08100
N1050       N  0.59248762  0.12883791  0.07039180    -0.35730
N1051       N  0.58438936  0.12904535  0.08013792    -0.27910
C1052       C  0.58955196  0.13588068  0.08981639    -0.03150
C1053       C  0.60163678  0.13999822  0.08615808     0.05460
C1054       C  0.60309562  0.13545245  0.07370723     0.03550
H1055       H  0.58477533  0.13770780  0.09884108     0.08660
H1056       H  0.61136174  0.13666359  0.06756968     0.07490
N1057       N  0.17388332  0.13733712  0.70217806    -0.26900
N1058       N  0.18441826  0.14365814  0.70542360    -0.34760
C1059       C  0.18312548  0.14823392  0.71743376     0.01440
C1060       C  0.17130486  0.14442646  0.72200816     0.07470
C1061       C  0.16559293  0.13774267  0.71203221    -0.05630
H1062       H  0.19021770  0.15398966  0.72242059     0.08140
H1063       H  0.15608688  0.13356481  0.71191101     0.09340
Cu1064     Cu  0.19996121  0.14603578  0.69335797     0.44170
Cu1065     Cu  0.17121322  0.12842915  0.68456151     0.41990
Cu1066     Cu  0.19752805  0.13099059  0.66215037     0.43880
N1067       N  0.21386692  0.14761871  0.67932056    -0.34280
N1068       N  0.21288545  0.14228401  0.66783782    -0.28540
C1069       C  0.22323661  0.14546132  0.66086580    -0.04640
C1070       C  0.23112357  0.15323429  0.66829339     0.07580
C1071       C  0.22491606  0.15424992  0.68000543     0.01370
H1072       H  0.22481795  0.14243002  0.65105274     0.09030
H1073       H  0.22818342  0.15935811  0.68846207     0.08100
N1074       N  0.18092120  0.12070193  0.65846648    -0.35730
N1075       N  0.17121269  0.11992746  0.66655472    -0.27910
C1076       C  0.16176232  0.11300360  0.66109281    -0.03150
C1077       C  0.16566330  0.10931231  0.64892261     0.05460
C1078       C  0.17794561  0.11423845  0.64767622     0.03550
H1079       H  0.15262538  0.11102087  0.66557291     0.08660
H1080       H  0.18427933  0.11326142  0.63952481     0.07490
N1081       N  0.10676858  0.07243953  0.55979765    -0.26900
N1082       N  0.09902085  0.06266238  0.55728359    -0.34760
C1083       C  0.09373534  0.06435229  0.54562257     0.01440
C1084       C  0.09834105  0.07575887  0.54062920     0.07470
C1085       C  0.10666177  0.08061014  0.54977703    -0.05630
H1086       H  0.08706585  0.05775564  0.54110928     0.08140
H1087       H  0.11215124  0.08944050  0.54923278     0.09340
Cu1088     Cu  0.09626962  0.04731358  0.56965466     0.44170
Cu1089     Cu  0.11696086  0.07417392  0.57680211     0.41990
Cu1090     Cu  0.11677975  0.04629901  0.59776796     0.43880
N1091       N  0.09647019  0.03224397  0.58265650    -0.34280
N1092       N  0.10434895  0.03160514  0.59257945    -0.28540
C1093       C  0.10229962  0.02048713  0.59884631    -0.04640
C1094       C  0.09264884  0.01373629  0.59257667     0.07580
C1095       C  0.08909034  0.02163046  0.58243753     0.01370
H1096       H  0.10740497  0.01762011  0.60742939     0.09030
H1097       H  0.08151710  0.01998285  0.57552255     0.08100
N1098       N  0.12617944  0.06335833  0.60206666    -0.35730
N1099       N  0.12596352  0.07359415  0.59454012    -0.27910
C1100       C  0.13218009  0.08329665  0.60040382    -0.03150
C1101       C  0.13648839  0.07902545  0.61225217     0.05460
C1102       C  0.13262376  0.06626008  0.61289388     0.03550
H1103       H  0.13324850  0.09285395  0.59641447     0.08660
H1104       H  0.13428333  0.05955490  0.62066159     0.07490
N1105       N  0.02775451  0.91120843  0.61306872    -0.26900
N1106       N  0.02711010  0.92216891  0.60663733    -0.34760
C1107       C  0.01623615  0.92232636  0.59968707     0.01440
C1108       C  0.00979032  0.91092057  0.60185480     0.07470
C1109       C  0.01727018  0.90411655  0.61043897    -0.05630
H1110       H  0.01328142  0.93013003  0.59347776     0.08140
H1111       H  0.01534678  0.89464725  0.61431657     0.09340
Cu1112     Cu  0.04103386  0.93638963  0.60751998     0.44170
Cu1113     Cu  0.04310925  0.90617918  0.62465115     0.41990
Cu1114     Cu  0.06840135  0.92994772  0.62787490     0.43880
N1115       N  0.05600579  0.94923544  0.61025498    -0.34280
N1116       N  0.06592740  0.94693743  0.61782142    -0.28540
C1117       C  0.07394562  0.95707321  0.61744724    -0.04640
C1118       C  0.06877487  0.96623880  0.60931426     0.07580
C1119       C  0.05746157  0.96088761  0.60483128     0.01370
H1120       H  0.08300786  0.95759327  0.62249317     0.09030
H1121       H  0.05079443  0.96513143  0.59808671     0.08100
N1122       N  0.06912042  0.91180429  0.63602428    -0.35730
N1123       N  0.05993942  0.90309337  0.63476237    -0.27910
C1124       C  0.06358061  0.89219254  0.64068220    -0.03150
C1125       C  0.07564845  0.89414207  0.64578569     0.05460
C1126       C  0.07882927  0.90670410  0.64282558     0.03550
H1127       H  0.05793284  0.88345566  0.64109948     0.08660
H1128       H  0.08761829  0.91169781  0.64524775     0.07490
N1129       N  0.13808769  0.83977244  0.72211297    -0.26900
N1130       N  0.14371864  0.82841648  0.72299511    -0.34760
C1131       C  0.15023985  0.82780637  0.73410234     0.01440
C1132       C  0.14878056  0.83939808  0.74045601     0.07470
C1133       C  0.14097685  0.84676068  0.73260782    -0.05630
H1134       H  0.15573390  0.81956232  0.73726093     0.08140
H1135       H  0.13745217  0.85637313  0.73447390     0.09340
Cu1136     Cu  0.14259044  0.81432281  0.70905768     0.44170
Cu1137     Cu  0.12660319  0.84507041  0.70679481     0.41990
Cu1138     Cu  0.12451216  0.82203045  0.68056376     0.43880
N1139       N  0.14048144  0.80186817  0.69374491    -0.34280
N1140       N  0.13383799  0.80465026  0.68328653    -0.28540
C1141       C  0.13434620  0.79458141  0.67517455    -0.04640
C1142       C  0.14153478  0.78501349  0.68090563     0.07580
C1143       C  0.14544171  0.78999225  0.69257131     0.01370
H1144       H  0.12990597  0.79428857  0.66577801     0.09030
H1145       H  0.15149299  0.78536906  0.69964186     0.08100
N1146       N  0.11549086  0.83978514  0.68057194    -0.35730
N1147       N  0.11602488  0.84803995  0.69023916    -0.27910
C1148       C  0.10903338  0.85848811  0.68728027    -0.03150
C1149       C  0.10384482  0.85670809  0.67517682     0.05460
C1150       C  0.10823132  0.84481210  0.67115582     0.03550
H1151       H  0.10804050  0.86687621  0.69337111     0.08660
H1152       H  0.10628755  0.84014760  0.66205805     0.07490
N1153       N  0.40699652  0.10721407  0.53814095    -0.26900
N1154       N  0.41828857  0.10155637  0.53729472    -0.34760
C1155       C  0.41888345  0.09492844  0.52623140     0.01440
C1156       C  0.40726402  0.09617296  0.51987289     0.07470
C1157       C  0.40001822  0.10416455  0.52769901    -0.05630
H1158       H  0.42723322  0.08964451  0.52310074     0.08140
H1159       H  0.39030552  0.10739829  0.52604461     0.09340
Cu1160     Cu  0.43215047  0.10242166  0.55146629     0.44170
Cu1161     Cu  0.40164799  0.11872684  0.55351052     0.41990
Cu1162     Cu  0.42409146  0.11988808  0.58026652     0.43880
N1163       N  0.44442253  0.10433681  0.56695033    -0.34280
N1164       N  0.44164690  0.11102882  0.57738692    -0.28540
C1165       C  0.45175873  0.11072823  0.58541963    -0.04640
C1166       C  0.46126464  0.10341393  0.57975836     0.07580
C1167       C  0.45626819  0.09941429  0.56813112     0.01370
H1168       H  0.45208378  0.11529275  0.59476179     0.09030
H1169       H  0.46092588  0.09344462  0.56101616     0.08100
N1170       N  0.40627584  0.12870120  0.58033737    -0.35730
N1171       N  0.39839592  0.12881574  0.57039656    -0.27910
C1172       C  0.38804740  0.13589871  0.57337091    -0.03150
C1173       C  0.38938124  0.14046940  0.58585243     0.05460
C1174       C  0.40102448  0.13547233  0.58998321     0.03550
H1175       H  0.38012000  0.13752485  0.56686951     0.08660
H1176       H  0.40536385  0.13641878  0.59936884     0.07490
N1177       N  0.30131096  0.17590608  0.64778425    -0.26900
N1178       N  0.29750240  0.18715760  0.65225111    -0.34760
C1179       C  0.28533343  0.18612385  0.65627142     0.01440
C1180       C  0.28117306  0.17354223  0.65434255     0.07470
C1181       C  0.29174476  0.16732546  0.64910002    -0.05630
H1182       H  0.27993213  0.19407545  0.66020165     0.08140
H1183       H  0.29261473  0.15730597  0.64646441     0.09340
Cu1184     Cu  0.30911499  0.20330521  0.65309910     0.44170
Cu1185     Cu  0.31886772  0.17316446  0.63895138     0.41990
Cu1186     Cu  0.33920342  0.20157112  0.63625950     0.43880
N1187       N  0.32276153  0.21777744  0.65361742    -0.34280
N1188       N  0.33369974  0.21729121  0.64725517    -0.28540
C1189       C  0.34042558  0.22809778  0.64966195    -0.04640
C1190       C  0.33335971  0.23571928  0.65794606     0.07580
C1191       C  0.32227995  0.22882244  0.66034506     0.01370
H1192       H  0.34987608  0.23012002  0.64590573     0.09030
H1193       H  0.31445099  0.23161466  0.66654441     0.08100
N1194       N  0.34279441  0.18424264  0.62699654    -0.35730
N1195       N  0.33552657  0.17386750  0.62817131    -0.27910
C1196       C  0.34066489  0.16423227  0.62126151    -0.03150
C1197       C  0.35158919  0.16880447  0.61528837     0.05460
C1198       C  0.35274690  0.18146541  0.61929986     0.03550
H1199       H  0.33694582  0.15451101  0.62103753     0.08660
H1200       H  0.36036760  0.18812315  0.61692582     0.07490
N1201       N  0.38468146  0.42738352  0.95125922    -0.26900
N1202       N  0.39116586  0.43796059  0.95409540    -0.34760
C1203       C  0.39591971  0.43691513  0.96605568     0.01440
C1204       C  0.39226442  0.42509259  0.97094010     0.07470
C1205       C  0.38526389  0.41924124  0.96127357    -0.05630
H1206       H  0.40173286  0.44415031  0.97078133     0.08140
H1207       H  0.38080647  0.40983008  0.96154787     0.09340
Cu1208     Cu  0.39345357  0.45318069  0.94148981     0.44170
Cu1209     Cu  0.37507094  0.42470470  0.93406925     0.41990
Cu1210     Cu  0.37608699  0.45121655  0.91135797     0.43880
N1211       N  0.39405757  0.46730666  0.92749685    -0.34280
N1212       N  0.38738215  0.46684592  0.91668889    -0.28540
C1213       C  0.38965264  0.47764376  0.90991787    -0.04640
C1214       C  0.39822292  0.48515152  0.91678327     0.07580
C1215       C  0.40089040  0.47829195  0.92781417     0.01370
H1216       H  0.38556602  0.47975975  0.90059814     0.09030
H1217       H  0.40724850  0.48111537  0.93554604     0.08100
N1218       N  0.36656209  0.43394335  0.90796768    -0.35730
N1219       N  0.36616248  0.42434835  0.91630657    -0.27910
C1220       C  0.35949369  0.41451279  0.91118190    -0.03150
C1221       C  0.35573776  0.41799086  0.89894488     0.05460
C1222       C  0.36020561  0.43041534  0.89726464     0.03550
H1223       H  0.35764817  0.40545186  0.91596241     0.08660
H1224       H  0.35905762  0.43638513  0.88883074     0.07490
N1225       N  0.31749727  0.35866703  0.81041743    -0.26900
N1226       N  0.30668305  0.35288342  0.80712658    -0.34760
C1227       C  0.30793407  0.34791925  0.79527073     0.01440
C1228       C  0.32018366  0.35056081  0.79094772     0.07470
C1229       C  0.32595113  0.35748536  0.80075833    -0.05630
H1230       H  0.30050898  0.34266377  0.79022051     0.08140
H1231       H  0.33552556  0.36150130  0.80081796     0.09340
Cu1232     Cu  0.29083607  0.35169659  0.81898893     0.44170
Cu1233     Cu  0.32013190  0.36808352  0.82777780     0.41990
Cu1234     Cu  0.29326011  0.36771768  0.84981199     0.43880
N1235       N  0.27668436  0.35098303  0.83287054    -0.34280
N1236       N  0.27756172  0.35680872  0.84413039    -0.28540
C1237       C  0.26701091  0.35413385  0.85102494    -0.04640
C1238       C  0.25904783  0.34631931  0.84372532     0.07580
C1239       C  0.26557003  0.34443813  0.83230542     0.01370
H1240       H  0.26530607  0.35756510  0.86068631     0.09030
H1241       H  0.26263724  0.33847952  0.82428846     0.08100
N1242       N  0.31024297  0.37754688  0.85330025    -0.35730
N1243       N  0.32009864  0.37748323  0.84533971    -0.27910
C1244       C  0.32967492  0.38448368  0.85046789    -0.03150
C1245       C  0.32560963  0.38932991  0.86214584     0.05460
C1246       C  0.31327200  0.38465905  0.86368429     0.03550
H1247       H  0.33890559  0.38598155  0.84599203     0.08660
H1248       H  0.30703327  0.38614202  0.87183796     0.07490
N1249       N  0.42171171  0.44322302  0.61401147    -0.26900
N1250       N  0.43302995  0.44735338  0.61013057    -0.34760
C1251       C  0.43195813  0.45963415  0.60626017     0.01440
C1252       C  0.41931095  0.46352239  0.60770536     0.07470
C1253       C  0.41308376  0.45271512  0.61250730    -0.05630
H1254       H  0.43988988  0.46529041  0.60267916     0.08140
H1255       H  0.40300959  0.45165879  0.61464560     0.09340
Cu1256     Cu  0.44928368  0.43594195  0.60945365     0.44170
Cu1257     Cu  0.41876360  0.42516987  0.62197111     0.41990
Cu1258     Cu  0.44660027  0.40430670  0.62336443     0.43880
N1259       N  0.46321284  0.42187452  0.60757093    -0.34280
N1260       N  0.46211642  0.41018380  0.61246071    -0.28540
C1261       C  0.47229303  0.40311632  0.60888331    -0.04640
C1262       C  0.48014422  0.41072534  0.60133037     0.07580
C1263       C  0.47415789  0.42259466  0.60081666     0.01370
H1264       H  0.47384938  0.39317718  0.61157303     0.09030
H1265       H  0.47737382  0.43104545  0.59566838     0.08100
N1266       N  0.42947404  0.40039582  0.63260142    -0.35730
N1267       N  0.41917654  0.40775541  0.63169187    -0.27910
C1268       C  0.40956855  0.40228957  0.63833843    -0.03150
C1269       C  0.41406773  0.39097977  0.64368606     0.05460
C1270       C  0.42673752  0.39012236  0.63996192     0.03550
H1271       H  0.40005187  0.40629644  0.63929129     0.08660
H1272       H  0.43340206  0.38247801  0.64222752     0.07490
N1273       N  0.35143696  0.33893854  0.72275277    -0.26900
N1274       N  0.34452725  0.32825071  0.72295038    -0.34760
C1275       C  0.33781367  0.32782965  0.73395077     0.01440
C1276       C  0.34073657  0.33872711  0.74099118     0.07470
C1277       C  0.34942623  0.34554481  0.73368107    -0.05630
H1278       H  0.33135451  0.32013890  0.73665052     0.08140
H1279       H  0.35379767  0.35470869  0.73602351     0.09340
Cu1280     Cu  0.34493983  0.31450415  0.70850518     0.44170
Cu1281     Cu  0.36296692  0.34420411  0.70748992     0.41990
Cu1282     Cu  0.36722694  0.32029523  0.68249748     0.43880
N1283       N  0.34845386  0.30142373  0.69388033    -0.34280
N1284       N  0.35687162  0.30335323  0.68461740    -0.28540
C1285       C  0.35713865  0.29290956  0.67697427    -0.04640
C1286       C  0.34849907  0.28390101  0.68165616     0.07580
C1287       C  0.34306145  0.28976143  0.69230924     0.01370
H1288       H  0.36317400  0.29198464  0.66859082     0.09030
H1289       H  0.33557429  0.28596380  0.69839713     0.08100
N1290       N  0.37549842  0.33848006  0.68209091    -0.35730
N1291       N  0.37376963  0.34725482  0.69113081    -0.27910
C1292       C  0.37992929  0.35812482  0.68779008    -0.03150
C1293       C  0.38606733  0.35599670  0.67623071     0.05460
C1294       C  0.38287406  0.34352611  0.67278700     0.03550
H1295       H  0.37966621  0.36700086  0.69323259     0.08660
H1296       H  0.38556966  0.33855216  0.66406662     0.07490
N1297       N  0.44104678  0.38883451  0.07734233    -0.26900
N1298       N  0.44310386  0.39723425  0.06803110    -0.34760
C1299       C  0.45439884  0.40312418  0.07006908     0.01440
C1300       C  0.45969154  0.39816562  0.08117728     0.07470
C1301       C  0.45106147  0.38905103  0.08549687    -0.05630
H1302       H  0.45847471  0.41043416  0.06389971     0.08140
H1303       H  0.45185920  0.38323076  0.09407392     0.09340
Cu1304     Cu  0.43068873  0.40018574  0.05282102     0.44170
Cu1305     Cu  0.42436088  0.37813859  0.07895668     0.41990
Cu1306     Cu  0.40125197  0.38190397  0.05320196     0.43880
N1307       N  0.41749737  0.40033616  0.03798037    -0.34280
N1308       N  0.40689719  0.39333752  0.03794734    -0.28540
C1309       C  0.40061256  0.39526140  0.02683001    -0.04640
C1310       C  0.40760497  0.40390164  0.01960542     0.07580
C1311       C  0.41819514  0.40700800  0.02694466     0.01370
H1312       H  0.39154988  0.39085777  0.02428924     0.09030
H1313       H  0.42586068  0.41356024  0.02443495     0.08100
N1314       N  0.39761851  0.37178468  0.06992811    -0.35730
N1315       N  0.40613677  0.37020978  0.07920725    -0.27910
C1316       C  0.40082013  0.36323118  0.08866724    -0.03150
C1317       C  0.38830536  0.36040283  0.08525125     0.05460
C1318       C  0.38662227  0.36592715  0.07327676     0.03550
H1319       H  0.40565177  0.36058362  0.09748100     0.08660
H1320       H  0.37814516  0.36554155  0.06730213     0.07490
N1321       N  0.33331926  0.28195623  0.14657296    -0.26900
N1322       N  0.32260311  0.28148594  0.15329613    -0.34760
C1323       C  0.32222903  0.27034210  0.15985397     0.01440
C1324       C  0.33316541  0.26341256  0.15698419     0.07470
C1325       C  0.34009952  0.27118394  0.14874772    -0.05630
H1326       H  0.31463582  0.26755332  0.16634705     0.08140
H1327       H  0.34956373  0.26937974  0.14493959     0.09340
Cu1328     Cu  0.30924425  0.29619158  0.15347209     0.44170
Cu1329     Cu  0.33845574  0.29736298  0.13508266     0.41990
Cu1330     Cu  0.31719286  0.32483455  0.13512504     0.43880
N1331       N  0.29709224  0.31177128  0.15130581    -0.34280
N1332       N  0.29980931  0.32206351  0.14434393    -0.28540
C1333       C  0.28972412  0.33011569  0.14457181    -0.04640
C1334       C  0.28026453  0.32461486  0.15207131     0.07580
C1335       C  0.28529397  0.31306760  0.15628396     0.01370
H1336       H  0.28939187  0.33937726  0.13982999     0.09030
H1337       H  0.28068715  0.30608104  0.16245017     0.08100
N1338       N  0.33496265  0.32471676  0.12624726    -0.35730
N1339       N  0.34239179  0.31445686  0.12568357    -0.27910
C1340       C  0.35293597  0.31731111  0.11887339    -0.03150
C1341       C  0.35238047  0.33016606  0.11523617     0.05460
C1342       C  0.34072236  0.33446668  0.12003449     0.03550
H1343       H  0.36034425  0.31039021  0.11672216     0.08660
H1344       H  0.33670590  0.34402449  0.11920961     0.07490
N1345       N  0.10497480  0.46839062  0.09222872    -0.26900
N1346       N  0.09682797  0.46768111  0.08249781    -0.34760
C1347       C  0.08945041  0.47828512  0.08242230     0.01440
C1348       C  0.09326148  0.48611085  0.09246635     0.07470
C1349       C  0.10307448  0.47954078  0.09852918    -0.05630
H1350       H  0.08194858  0.48020699  0.07549750     0.08140
H1351       H  0.10827345  0.48252808  0.10703062     0.09340
Cu1352     Cu  0.09627215  0.45260854  0.06946491     0.44170
Cu1353     Cu  0.11767089  0.45380191  0.09707963     0.41990
Cu1354     Cu  0.11674996  0.42574473  0.07639782     0.43880
N1355       N  0.09885343  0.43729576  0.05698486    -0.34280
N1356       N  0.10673583  0.42762313  0.05934428    -0.28540
C1357       C  0.10672338  0.41956062  0.04922384    -0.04640
C1358       C  0.09829250  0.42434475  0.04018082     0.07580
C1359       C  0.09346696  0.43557901  0.04536759     0.01370
H1360       H  0.11225086  0.41077601  0.04860167     0.09030
H1361       H  0.08662700  0.44206020  0.04099185     0.08100
N1362       N  0.12587217  0.42619991  0.09404826    -0.35730
N1363       N  0.12682794  0.43658649  0.10130992    -0.27910
C1364       C  0.13358372  0.43366759  0.11192815    -0.03150
C1365       C  0.13676595  0.42066932  0.11154703     0.05460
C1366       C  0.13174608  0.41634976  0.09995044     0.03550
H1367       H  0.13596699  0.44060632  0.11929642     0.08660
H1368       H  0.13214289  0.40669530  0.09607184     0.07490
N1369       N  0.17345647  0.36056749  0.20014590    -0.26900
N1370       N  0.18364566  0.35351996  0.20285764    -0.34760
C1371       C  0.18246694  0.34874228  0.21478210     0.01440
C1372       C  0.17102575  0.35306729  0.21990511     0.07470
C1373       C  0.16549269  0.36042688  0.21029166    -0.05630
H1374       H  0.18940243  0.34249062  0.21933628     0.08140
H1375       H  0.15640376  0.36541113  0.21068082     0.09340
Cu1376     Cu  0.19889317  0.35089238  0.19046745     0.44170
Cu1377     Cu  0.17103972  0.37020924  0.18286172     0.41990
Cu1378     Cu  0.19863228  0.36981390  0.16155850     0.43880
N1379       N  0.21374219  0.35097701  0.17733948    -0.34280
N1380       N  0.21384807  0.35824624  0.16694367    -0.28540
C1381       C  0.22490628  0.35635560  0.16062530    -0.04640
C1382       C  0.23217974  0.34748534  0.16740068     0.07580
C1383       C  0.22467105  0.34417652  0.17786809     0.01370
H1384       H  0.22741718  0.36106702  0.15171484     0.09030
H1385       H  0.22684482  0.33718785  0.18524894     0.08100
N1386       N  0.18157704  0.37907343  0.15738866    -0.35730
N1387       N  0.17147281  0.37911411  0.16503100    -0.27910
C1388       C  0.16196431  0.38570829  0.15930548    -0.03150
C1389       C  0.16624515  0.38985021  0.14743640     0.05460
C1390       C  0.17877583  0.38563196  0.14662593     0.03550
H1391       H  0.15259673  0.38730982  0.16344100     0.08660
H1392       H  0.18550577  0.38741682  0.13895208     0.07490
N1393       N  0.38260084  0.92811862  0.05799212    -0.26900
N1394       N  0.38878675  0.93886060  0.05512129    -0.34760
C1395       C  0.39421948  0.93757109  0.04350204     0.01440
C1396       C  0.39161185  0.92532503  0.03896739     0.07470
C1397       C  0.38401147  0.91967721  0.04827155    -0.05630
H1398       H  0.39966873  0.94501954  0.03871366     0.08140
H1399       H  0.37987067  0.91012002  0.04802003     0.09340
Cu1400     Cu  0.39019155  0.95464131  0.06725146     0.44170
Cu1401     Cu  0.37270981  0.92544145  0.07508496     0.41990
Cu1402     Cu  0.37601758  0.95123915  0.09852070     0.43880
N1403       N  0.39142305  0.96863543  0.08140890    -0.34280
N1404       N  0.38634140  0.96731460  0.09294460    -0.28540
C1405       C  0.38899110  0.97786770  0.09996380    -0.04640
C1406       C  0.39597412  0.98631647  0.09243785     0.07580
C1407       C  0.39744047  0.98007564  0.08076611     0.01370
H1408       H  0.38600573  0.97930019  0.10980687     0.09030
H1409       H  0.40267146  0.98349518  0.07247904     0.08100
N1410       N  0.36554966  0.93459067  0.10164470    -0.35730
N1411       N  0.36419097  0.92525311  0.09310477    -0.27910
C1412       C  0.35681275  0.91592544  0.09817481    -0.03150
C1413       C  0.35331671  0.91959649  0.11048395     0.05460
C1414       C  0.35911821  0.93144600  0.11236245     0.03550
H1415       H  0.35442624  0.90700873  0.09334205     0.08660
H1416       H  0.35867315  0.93739275  0.12088951     0.07490
N1417       N  0.31732048  0.85785940  0.19881002    -0.26900
N1418       N  0.30607981  0.85349478  0.20266949    -0.34760
C1419       C  0.30709687  0.84956689  0.21491714     0.01440
C1420       C  0.31962358  0.85148859  0.21906413     0.07470
C1421       C  0.32584292  0.85661041  0.20843552    -0.05630
H1422       H  0.29919608  0.84568805  0.22039967     0.08140
H1423       H  0.33583893  0.85919893  0.20760675     0.09340
Cu1424     Cu  0.28994503  0.85261958  0.19101956     0.44170
Cu1425     Cu  0.32027470  0.86634284  0.18103060     0.41990
Cu1426     Cu  0.29204790  0.86937668  0.16082049     0.43880
N1427       N  0.27577682  0.85184769  0.17702789    -0.34280
N1428       N  0.27646850  0.85815498  0.16603026    -0.28540
C1429       C  0.26601222  0.85544622  0.15894257    -0.04640
C1430       C  0.25846466  0.84686306  0.16572360     0.07580
C1431       C  0.26489847  0.84488255  0.17720008     0.01370
H1432       H  0.26418597  0.85921058  0.14942765     0.09030
H1433       H  0.26191494  0.83880393  0.18508405     0.08100
N1434       N  0.30942589  0.87823655  0.15695333    -0.35730
N1435       N  0.31982486  0.87681320  0.16407589    -0.27910
C1436       C  0.32949662  0.88348458  0.15873229    -0.03150
C1437       C  0.32493940  0.88956309  0.14778415     0.05460
C1438       C  0.31218661  0.88589508  0.14693585     0.03550
H1439       H  0.33915897  0.88374478  0.16250515     0.08660
H1440       H  0.30536876  0.88860423  0.13958082     0.07490
N1441       N  0.94064179  0.38977275  0.43144657    -0.26900
N1442       N  0.94216926  0.39870785  0.44037363    -0.34760
C1443       C  0.95374645  0.40422570  0.43889654     0.01440
C1444       C  0.95999613  0.39831822  0.42870308     0.07470
C1445       C  0.95126868  0.38927168  0.42417845    -0.05630
H1446       H  0.95723211  0.41207846  0.44477447     0.08140
H1447       H  0.95252100  0.38274611  0.41617611     0.09340
Cu1448     Cu  0.92886246  0.40249145  0.45475293     0.44170
Cu1449     Cu  0.92406774  0.37886757  0.42919556     0.41990
Cu1450     Cu  0.90181855  0.38086897  0.45546820     0.43880
N1451       N  0.91554260  0.40205146  0.46959577    -0.34280
N1452       N  0.90615566  0.39354303  0.47016371    -0.28540
C1453       C  0.89982278  0.39500443  0.48128489    -0.04640
C1454       C  0.90520326  0.40522918  0.48803144     0.07580
C1455       C  0.91525567  0.40935136  0.48026785     0.01370
H1456       H  0.89202887  0.38882283  0.48420567     0.09030
H1457       H  0.92196392  0.41706260  0.48220438     0.08100
N1458       N  0.89813963  0.37068652  0.43879626    -0.35730
N1459       N  0.90623475  0.36993271  0.42908240    -0.27910
C1460       C  0.90075358  0.36304470  0.41958062    -0.03150
C1461       C  0.88871012  0.35917316  0.42360828     0.05460
C1462       C  0.88731106  0.36435184  0.43575545     0.03550
H1463       H  0.90516551  0.36106224  0.41039557     0.08660
H1464       H  0.87890242  0.36397026  0.44179191     0.07490
N1465       N  0.83378533  0.28252030  0.36139505    -0.26900
N1466       N  0.82427998  0.28310527  0.35301526    -0.34760
C1467       C  0.82450484  0.27247244  0.34563853     0.01440
C1468       C  0.83469126  0.26479602  0.34949252     0.07470
C1469       C  0.84022810  0.27145487  0.35965507    -0.05630
H1470       H  0.81773753  0.27051547  0.33799401     0.08140
H1471       H  0.84829228  0.26849342  0.36547614     0.09340
Cu1472     Cu  0.81109259  0.29805673  0.35237378     0.44170
Cu1473     Cu  0.83815286  0.29717470  0.37420919     0.41990
Cu1474     Cu  0.81648580  0.32420971  0.37475991     0.43880
N1475       N  0.79798718  0.31271033  0.35570911    -0.34280
N1476       N  0.79966206  0.32179508  0.36442291    -0.28540
C1477       C  0.78908914  0.32913873  0.36492968    -0.04640
C1478       C  0.78021896  0.32458459  0.35600806     0.07580
C1479       C  0.78641218  0.31421582  0.35023208     0.01370
H1480       H  0.78804767  0.33723438  0.37137625     0.09030
H1481       H  0.78303353  0.30822172  0.34245710     0.08100
N1482       N  0.83443931  0.32446168  0.38330306    -0.35730
N1483       N  0.84215246  0.31437158  0.38351574    -0.27910
C1484       C  0.85299718  0.31754929  0.38976253    -0.03150
C1485       C  0.85214341  0.33030642  0.39344768     0.05460
C1486       C  0.84024308  0.33439725  0.38925992     0.03550
H1487       H  0.86103324  0.31114306  0.39124064     0.08660
H1488       H  0.83609720  0.34386170  0.39049249     0.07490
N1489       N  0.60492935  0.42794003  0.45033201    -0.26900
N1490       N  0.59922918  0.43881678  0.45361322    -0.34760
C1491       C  0.59479273  0.43773052  0.46569015     0.01440
C1492       C  0.59804968  0.42567568  0.47028737     0.07470
C1493       C  0.60421439  0.41963227  0.46019935    -0.05630
H1494       H  0.58944868  0.44510332  0.47069834     0.08140
H1495       H  0.60775683  0.40984664  0.45996795     0.09340
Cu1496     Cu  0.59725847  0.45436948  0.44128498     0.44170
Cu1497     Cu  0.61350341  0.42486571  0.43264715     0.41990
Cu1498     Cu  0.60927898  0.44986183  0.40891927     0.43880
N1499       N  0.59526210  0.46782560  0.42671207    -0.34280
N1500       N  0.59916015  0.46594938  0.41479662    -0.28540
C1501       C  0.59597977  0.47623852  0.40765084    -0.04640
C1502       C  0.59001903  0.48521972  0.41549283     0.07580
C1503       C  0.58965656  0.47943809  0.42750078     0.01370
H1504       H  0.59781796  0.47699732  0.39746523     0.09030
H1505       H  0.58567255  0.48338202  0.43624017     0.08100
N1506       N  0.62058708  0.43374935  0.40605657    -0.35730
N1507       N  0.62212532  0.42459012  0.41472521    -0.27910
C1508       C  0.63013317  0.41562376  0.41002238    -0.03150
C1509       C  0.63393914  0.41938858  0.39785430     0.05460
C1510       C  0.62759376  0.43087785  0.39562070     0.03550
H1511       H  0.63303562  0.40703438  0.41512665     0.08660
H1512       H  0.62791870  0.43666704  0.38699354     0.07490
N1513       N  0.71214916  0.35773637  0.34464182    -0.26900
N1514       N  0.71295072  0.35212510  0.33328255    -0.34760
C1515       C  0.72425931  0.34606592  0.33234384     0.01440
C1516       C  0.73100563  0.34794328  0.34364816     0.07470
C1517       C  0.72296304  0.35531703  0.35129097    -0.05630
H1518       H  0.72732164  0.34064391  0.32402139     0.08140
H1519       H  0.72471511  0.35849724  0.36103683     0.09340
Cu1520     Cu  0.69865190  0.35266992  0.31957728     0.44170
Cu1521     Cu  0.69627824  0.36838500  0.35025845     0.41990
Cu1522     Cu  0.67202629  0.37373361  0.32527083     0.43880
N1523       N  0.68378381  0.35506197  0.30671322    -0.34280
N1524       N  0.67429465  0.36324936  0.30845496    -0.28540
C1525       C  0.66648436  0.36278106  0.29818048    -0.04640
C1526       C  0.67124046  0.35378236  0.28949952     0.07580
C1527       C  0.68216806  0.34898859  0.29544006     0.01370
H1528       H  0.65790647  0.36852934  0.29721981     0.09030
H1529       H  0.68840439  0.34139705  0.29213655     0.08100
N1530       N  0.67101056  0.38116606  0.34375438    -0.35730
N1531       N  0.67960261  0.37897380  0.35287006    -0.27910
C1532       C  0.67567224  0.38459338  0.36382090    -0.03150
C1533       C  0.66411449  0.39059391  0.36144129     0.05460
C1534       C  0.66144149  0.38830297  0.34865227     0.03550
H1535       H  0.68080719  0.38426405  0.37285320     0.08660
H1536       H  0.65303446  0.39134363  0.34337253     0.07490
N1537       N  0.52685063  0.41222825  0.11377745    -0.26900
N1538       N  0.52617213  0.42337100  0.10770559    -0.34760
C1539       C  0.51542903  0.42360306  0.10057529     0.01440
C1540       C  0.50906019  0.41199951  0.10216063     0.07470
C1541       C  0.51652801  0.40509038  0.11073338    -0.05630
H1542       H  0.51254895  0.43159293  0.09456979     0.08140
H1543       H  0.51460650  0.39559682  0.11454786     0.09340
Cu1544     Cu  0.54001152  0.43759746  0.10911480     0.44170
Cu1545     Cu  0.54205633  0.40697829  0.12538063     0.41990
Cu1546     Cu  0.56904617  0.42902974  0.12608721     0.43880
N1547       N  0.55571631  0.44967463  0.11078891    -0.34280
N1548       N  0.56651157  0.44639253  0.11659904    -0.28540
C1549       C  0.57504856  0.45602671  0.11531672    -0.04640
C1550       C  0.56926654  0.46582197  0.10846638     0.07580
C1551       C  0.55701783  0.46154193  0.10580578     0.01370
H1552       H  0.58471750  0.45591161  0.11908822     0.09030
H1553       H  0.54970352  0.46654183  0.10038454     0.08100
N1554       N  0.56889820  0.41125601  0.13515391    -0.35730
N1555       N  0.55901860  0.40327334  0.13495981    -0.27910
C1556       C  0.56208640  0.39252039  0.14144143    -0.03150
C1557       C  0.57455440  0.39373369  0.14583907     0.05460
C1558       C  0.57851762  0.40579501  0.14179299     0.03550
H1559       H  0.55571840  0.38439967  0.14276906     0.08660
H1560       H  0.58781343  0.41017417  0.14332190     0.07490
N1561       N  0.63360487  0.30449579  0.18311191    -0.26900
N1562       N  0.64028425  0.30148301  0.19349487    -0.34760
C1563       C  0.64559018  0.28980732  0.19183627     0.01440
C1564       C  0.64219646  0.28533900  0.17980290     0.07470
C1565       C  0.63443178  0.29477426  0.17459998    -0.05630
H1566       H  0.65155106  0.28496772  0.19883847     0.08140
H1567       H  0.62982783  0.29464297  0.16527864     0.09340
Cu1568     Cu  0.64211809  0.31336054  0.20941538     0.44170
Cu1569     Cu  0.62403382  0.32184146  0.18076826     0.41990
Cu1570     Cu  0.62564830  0.34383145  0.20766573     0.43880
N1571       N  0.64266967  0.32706292  0.22390243    -0.34280
N1572       N  0.63656337  0.33818004  0.22324866    -0.28540
C1573       C  0.63902938  0.34503590  0.23392354    -0.04640
C1574       C  0.64703372  0.33786506  0.24174451     0.07580
C1575       C  0.64922628  0.32656254  0.23502226     0.01370
H1576       H  0.63564748  0.35472757  0.23555849     0.09030
H1577       H  0.65525177  0.31861014  0.23793962     0.08100
N1578       N  0.61585609  0.34775189  0.19085348    -0.35730
N1579       N  0.61551258  0.33988379  0.18088753    -0.27910
C1580       C  0.60883777  0.34550177  0.17137367    -0.03150
C1581       C  0.60475572  0.35752648  0.17552607     0.05460
C1582       C  0.60928614  0.35850051  0.18802343     0.03550
H1583       H  0.60721706  0.34116927  0.16205690     0.08660
H1584       H  0.60785466  0.36633653  0.19470560     0.07490
N1585       N  0.08537170  0.10466769  0.47180825    -0.26900
N1586       N  0.07374057  0.09977248  0.47314036    -0.34760
C1587       C  0.07299226  0.09372867  0.48453025     0.01440
C1588       C  0.08477557  0.09470548  0.49052041     0.07470
C1589       C  0.09240186  0.10171058  0.48223557    -0.05630
H1590       H  0.06456344  0.08882849  0.48809472     0.08140
H1591       H  0.10226415  0.10457953  0.48374279     0.09340
Cu1592     Cu  0.05959029  0.10104606  0.45921627     0.44170
Cu1593     Cu  0.09097670  0.11558981  0.45614585     0.41990
Cu1594     Cu  0.06683971  0.12093056  0.43167481     0.43880
N1595       N  0.04747975  0.10304747  0.44355439    -0.34280
N1596       N  0.05000243  0.11056267  0.43363037    -0.28540
C1597       C  0.04028194  0.10978965  0.42516693    -0.04640
C1598       C  0.03133133  0.10120469  0.42989886     0.07580
C1599       C  0.03614708  0.09717195  0.44160721     0.01370
H1600       H  0.03986421  0.11492795  0.41614062     0.09030
H1601       H  0.03170941  0.09052530  0.44825210     0.08100
N1602       N  0.08492545  0.12913153  0.43127337    -0.35730
N1603       N  0.09378905  0.12705851  0.44011837    -0.27910
C1604       C  0.10450664  0.13346921  0.43688512    -0.03150
C1605       C  0.10224767  0.13998942  0.42551356     0.05460
C1606       C  0.08976252  0.13691375  0.42217808     0.03550
H1607       H  0.11330417  0.13336823  0.44239887     0.08660
H1608       H  0.08464659  0.13987120  0.41362497     0.07490
N1609       N  0.15588593  0.21630071  0.36069603    -0.26900
N1610       N  0.16744217  0.21749344  0.35566832    -0.34760
C1611       C  0.16814509  0.22865964  0.34921446     0.01440
C1612       C  0.15638065  0.23475676  0.34998483     0.07470
C1613       C  0.14888828  0.22669195  0.35748820    -0.05630
H1614       H  0.17666306  0.23208377  0.34438675     0.08140
H1615       H  0.13903694  0.22820520  0.36032005     0.09340
Cu1616     Cu  0.18166892  0.20378478  0.35726451     0.44170
Cu1617     Cu  0.15031140  0.20058727  0.37171262     0.41990
Cu1618     Cu  0.17504986  0.17645672  0.37720121     0.43880
N1619       N  0.19409704  0.18847341  0.35933489    -0.34280
N1620       N  0.19181732  0.17852917  0.36688460    -0.28540
C1621       C  0.20164038  0.17021572  0.36604928    -0.04640
C1622       C  0.21044945  0.17506620  0.35734822     0.07580
C1623       C  0.20536847  0.18672892  0.35339706     0.01370
H1624       H  0.20229092  0.16133262  0.37142569     0.09030
H1625       H  0.20947638  0.19341778  0.34658577     0.08100
N1626       N  0.15677247  0.17547060  0.38475122    -0.35730
N1627       N  0.14770097  0.18404449  0.38262852    -0.27910
C1628       C  0.13696555  0.18019970  0.38860910    -0.03150
C1629       C  0.13927456  0.16854882  0.39486654     0.05460
C1630       C  0.15208122  0.16599892  0.39212937     0.03550
H1631       H  0.12814400  0.18565164  0.38836063     0.08660
H1632       H  0.15787188  0.15792142  0.39508308     0.07490
N1633       N  0.06761589  0.44522443  0.39410584    -0.26900
N1634       N  0.05663105  0.44882998  0.39920668    -0.34760
C1635       C  0.05784746  0.46091037  0.40368042     0.01440
C1636       C  0.07027682  0.46518384  0.40138262     0.07470
C1637       C  0.07620954  0.45477765  0.39546501    -0.05630
H1638       H  0.05014991  0.46616280  0.40822135     0.08140
H1639       H  0.08606976  0.45397772  0.39245342     0.09340
Cu1640     Cu  0.04076196  0.43685232  0.40041181     0.44170
Cu1641     Cu  0.07014009  0.42782536  0.38479304     0.41990
Cu1642     Cu  0.04366171  0.40516302  0.38589926     0.43880
N1643       N  0.02667602  0.42277607  0.40142870    -0.34280
N1644       N  0.02760561  0.41128695  0.39601212    -0.28540
C1645       C  0.01686018  0.40454651  0.39849863    -0.04640
C1646       C  0.00881011  0.41216528  0.40584235     0.07580
C1647       C  0.01540444  0.42359648  0.40760944     0.01370
H1648       H  0.01514286  0.39474034  0.39540932     0.09030
H1649       H  0.01223598  0.43191582  0.41299693     0.08100
N1650       N  0.06073512  0.40176349  0.37619450    -0.35730
N1651       N  0.07017410  0.41022263  0.37549346    -0.27910
C1652       C  0.07960726  0.40536450  0.36819249    -0.03150
C1653       C  0.07615272  0.39304797  0.36432670     0.05460
C1654       C  0.06403629  0.39118395  0.36952395     0.03550
H1655       H  0.08826220  0.41056545  0.36581890     0.08660
H1656       H  0.05805780  0.38270901  0.36863047     0.07490
N1657       N  0.13416688  0.30447510  0.32608617    -0.26900
N1658       N  0.14329296  0.30285581  0.31749426    -0.34760
C1659       C  0.14909706  0.29152973  0.31967319     0.01440
C1660       C  0.14332101  0.28553878  0.33014419     0.07470
C1661       C  0.13373691  0.29410831  0.33378669    -0.05630
H1662       H  0.15691431  0.28795577  0.31388493     0.08140
H1663       H  0.12666388  0.29297447  0.34124621     0.09340
Cu1664     Cu  0.14666603  0.31559648  0.30252739     0.44170
Cu1665     Cu  0.12310726  0.32097602  0.32731507     0.41990
Cu1666     Cu  0.12637581  0.34396527  0.30155182     0.43880
N1667       N  0.14626415  0.32851015  0.28732767    -0.34280
N1668       N  0.13850408  0.33855935  0.28677773    -0.28540
C1669       C  0.14014240  0.34458512  0.27547306    -0.04640
C1670       C  0.14939845  0.33803059  0.26862279     0.07580
C1671       C  0.15316362  0.32796875  0.27644136     0.01370
H1672       H  0.13513040  0.35321725  0.27255192     0.09030
H1673       H  0.16028831  0.32071693  0.27431962     0.08100
N1674       N  0.11572585  0.34741518  0.31796502    -0.35730
N1675       N  0.11455723  0.33897043  0.32739182    -0.27910
C1676       C  0.10744153  0.34417241  0.33680328    -0.03150
C1677       C  0.10384954  0.35639346  0.33302438     0.05460
C1678       C  0.10934801  0.35822093  0.32111083     0.03550
H1679       H  0.10515507  0.33946017  0.34577590     0.08660
H1680       H  0.10887897  0.36679842  0.31523885     0.07490
N1681       N  0.42400034  0.94612123  0.39405952    -0.26900
N1682       N  0.43434109  0.94876997  0.40092802    -0.34760
C1683       C  0.43283827  0.96029120  0.40661466     0.01440
C1684       C  0.42086513  0.96497688  0.40337827     0.07470
C1685       C  0.41560938  0.95586608  0.39523025    -0.05630
H1686       H  0.44000551  0.96494981  0.41254106     0.08140
H1687       H  0.40634102  0.95625245  0.39056733     0.09340
Cu1688     Cu  0.44982554  0.93643933  0.40258640     0.44170
Cu1689     Cu  0.42169389  0.92923346  0.38375836     0.41990
Cu1690     Cu  0.44631424  0.90495423  0.38783660     0.43880
N1691       N  0.46370553  0.92223647  0.40342983    -0.34280
N1692       N  0.46241946  0.91071570  0.39813771    -0.28540
C1693       C  0.47305476  0.90380027  0.40052204    -0.04640
C1694       C  0.48145252  0.91141614  0.40748614     0.07580
C1695       C  0.47517225  0.92296140  0.40931493     0.01370
H1696       H  0.47455401  0.89396120  0.39744684     0.09030
H1697       H  0.47865008  0.93125666  0.41457560     0.08100
N1698       N  0.42958170  0.90208763  0.37734605    -0.35730
N1699       N  0.42083023  0.91107170  0.37562636    -0.27910
C1700       C  0.41136519  0.90635347  0.36824794    -0.03150
C1701       C  0.41406958  0.89358452  0.36516039     0.05460
C1702       C  0.42583758  0.89135992  0.37115792     0.03550
H1703       H  0.40321305  0.91211071  0.36549179     0.08660
H1704       H  0.43145477  0.88261315  0.37105705     0.07490
N1705       N  0.35672694  0.80362097  0.32654160    -0.26900
N1706       N  0.34928194  0.80103146  0.31659251    -0.34760
C1707       C  0.34375957  0.78947959  0.31833157     0.01440
C1708       C  0.34788582  0.78450499  0.32997005     0.07470
C1709       C  0.35622855  0.79371551  0.33484200    -0.05630
H1710       H  0.33714308  0.78507240  0.31162043     0.08140
H1711       H  0.36166259  0.79324836  0.34368567     0.09340
Cu1712     Cu  0.34695203  0.81322411  0.30106227     0.44170
Cu1713     Cu  0.36680189  0.82071024  0.32846449     0.41990
Cu1714     Cu  0.36150087  0.84468330  0.30347271     0.43880
N1715       N  0.34541633  0.82714627  0.28694516    -0.34280
N1716       N  0.35043176  0.83879263  0.28793647    -0.28540
C1717       C  0.34730320  0.84561133  0.27741362    -0.04640
C1718       C  0.33990144  0.83790411  0.26939818     0.07580
C1719       C  0.33908745  0.82618923  0.27573143     0.01370
H1720       H  0.35012774  0.85550481  0.27579298     0.09030
H1721       H  0.33432934  0.81752799  0.27244943     0.08100
N1722       N  0.37285535  0.84771261  0.31960696    -0.35730
N1723       N  0.37491105  0.83892638  0.32856239    -0.27910
C1724       C  0.38266974  0.84390270  0.33762295    -0.03150
C1725       C  0.38573130  0.85639824  0.33417911     0.05460
C1726       C  0.37923476  0.85853141  0.32277079     0.03550
H1727       H  0.38563732  0.83887141  0.34622602     0.08660
H1728       H  0.37914437  0.86730633  0.31718111     0.07490
N1729       N  0.38522341  0.07256125  0.45015812    -0.26900
N1730       N  0.39050362  0.06158214  0.45368565    -0.34760
C1731       C  0.39490123  0.06277707  0.46575797     0.01440
C1732       C  0.39238413  0.07519257  0.47011312     0.07470
C1733       C  0.38638816  0.08113285  0.45976260    -0.05630
H1734       H  0.39958820  0.05507788  0.47092168     0.08140
H1735       H  0.38324001  0.09100053  0.45900305     0.09340
Cu1736     Cu  0.39220206  0.04576484  0.44164523     0.44170
Cu1737     Cu  0.37605847  0.07518572  0.43274410     0.41990
Cu1738     Cu  0.37693584  0.04830708  0.41054811     0.43880
N1739       N  0.39357107  0.03183220  0.42743661    -0.34280
N1740       N  0.38775170  0.03263051  0.41618928    -0.28540
C1741       C  0.39053410  0.02210875  0.40920766    -0.04640
C1742       C  0.39875141  0.01438448  0.41628930     0.07580
C1743       C  0.40034932  0.02085092  0.42784968     0.01370
H1744       H  0.38676340  0.02026453  0.39970023     0.09030
H1745       H  0.40616479  0.01789509  0.43593702     0.08100
N1746       N  0.36748268  0.06540368  0.40689500    -0.35730
N1747       N  0.36693389  0.07510967  0.41510586    -0.27910
C1748       C  0.35995078  0.08465513  0.40992111    -0.03150
C1749       C  0.35615763  0.08083964  0.39778413     0.05460
C1750       C  0.36102445  0.06857705  0.39618276     0.03550
H1751       H  0.35799414  0.09377509  0.41454173     0.08660
H1752       H  0.35992153  0.06240237  0.38786853     0.07490
N1753       N  0.31614671  0.13746995  0.30885612    -0.26900
N1754       N  0.30725101  0.14634554  0.30713616    -0.34760
C1755       C  0.30932957  0.15231868  0.29590337     0.01440
C1756       C  0.32008669  0.14699649  0.29020459     0.07470
C1757       C  0.32405287  0.13747992  0.29867459    -0.05630
H1758       H  0.30341790  0.16002216  0.29220110     0.08140
H1759       H  0.33198960  0.13090201  0.29752781     0.09340
Cu1760     Cu  0.29235912  0.14977367  0.31976066     0.44170
Cu1761     Cu  0.31753814  0.12622123  0.32524283     0.41990
Cu1762     Cu  0.29321152  0.13202085  0.34925539     0.43880
N1763       N  0.27786326  0.15039225  0.33326182    -0.34280
N1764       N  0.27803616  0.14354217  0.34394805    -0.28540
C1765       C  0.26721004  0.14573478  0.35055249    -0.04640
C1766       C  0.25999277  0.15455227  0.34377215     0.07580
C1767       C  0.26696947  0.15726630  0.33282631     0.01370
H1768       H  0.26490784  0.14145545  0.35973501     0.09030
H1769       H  0.26432159  0.16373293  0.32512559     0.08100
N1770       N  0.30932017  0.12099590  0.35241791    -0.35730
N1771       N  0.31789919  0.11834266  0.34353060    -0.27910
C1772       C  0.32698647  0.11080688  0.34869084    -0.03150
C1773       C  0.32411319  0.10859841  0.36157969     0.05460
C1774       C  0.31283070  0.11545936  0.36350676     0.03550
H1775       H  0.33523122  0.10746094  0.34335304     0.08660
H1776       H  0.30754418  0.11685192  0.37229639     0.07490
N1777       N  0.35617716  0.19586425  0.18363480    -0.26900
N1778       N  0.34903368  0.19849670  0.19375708    -0.34760
C1779       C  0.34392033  0.21028699  0.19238021     0.01440
C1780       C  0.34819418  0.21546128  0.18089575     0.07470
C1781       C  0.35587312  0.20596528  0.17557699    -0.05630
H1782       H  0.33734271  0.21460426  0.19913880     0.08140
H1783       H  0.36084904  0.20633262  0.16647950     0.09340
Cu1784     Cu  0.34645181  0.18592320  0.20891083     0.44170
Cu1785     Cu  0.36564216  0.17849116  0.18109825     0.41990
Cu1786     Cu  0.36370927  0.15576639  0.20749725     0.43880
N1787       N  0.34526256  0.17180691  0.22284365    -0.34280
N1788       N  0.35166971  0.16084697  0.22243474    -0.28540
C1789       C  0.34885842  0.15390283  0.23295123    -0.04640
C1790       C  0.34015051  0.16077063  0.24024495     0.07580
C1791       C  0.33817817  0.17212422  0.23359387     0.01370
H1792       H  0.35282005  0.14452341  0.23510207     0.09030
H1793       H  0.33235543  0.18021364  0.23648562     0.08100
N1794       N  0.37372625  0.15231473  0.19070866    -0.35730
N1795       N  0.37414446  0.16043825  0.18095877    -0.27910
C1796       C  0.38074585  0.15500381  0.17130615    -0.03150
C1797       C  0.38465565  0.14282758  0.17511388     0.05460
C1798       C  0.38015385  0.14155660  0.18756735     0.03550
H1799       H  0.38237831  0.15952798  0.16209771     0.08660
H1800       H  0.38140076  0.13342523  0.19392701     0.07490
N1801       N  0.42239319  0.05364025  0.11615089    -0.26900
N1802       N  0.43253649  0.05091649  0.10905987    -0.34760
C1803       C  0.43093199  0.03926797  0.10363565     0.01440
C1804       C  0.41932108  0.03437613  0.10767649     0.07470
C1805       C  0.41412465  0.04369516  0.11558035    -0.05630
H1806       H  0.43775246  0.03466988  0.09731096     0.08140
H1807       H  0.40495633  0.04335288  0.12040124     0.09340
Cu1808     Cu  0.44818073  0.06302453  0.10720073     0.44170
Cu1809     Cu  0.42011263  0.07099930  0.12576935     0.41990
Cu1810     Cu  0.44584725  0.09438799  0.12193981     0.43880
N1811       N  0.46238370  0.07688966  0.10604805    -0.34280
N1812       N  0.46130027  0.08857384  0.11091116    -0.28540
C1813       C  0.47176500  0.09544372  0.10780192    -0.04640
C1814       C  0.47996058  0.08770285  0.10065624     0.07580
C1815       C  0.47367605  0.07590738  0.09997025     0.01370
H1816       H  0.47319252  0.10539702  0.11051765     0.09030
H1817       H  0.47699114  0.06710702  0.09556855     0.08100
N1818       N  0.42948439  0.09765650  0.13269476    -0.35730
N1819       N  0.42002639  0.08926601  0.13388413    -0.27910
C1820       C  0.41067339  0.09458072  0.14097829    -0.03150
C1821       C  0.41437374  0.10694889  0.14443076     0.05460
C1822       C  0.42646593  0.10845920  0.13913177     0.03550
H1823       H  0.40173040  0.08983192  0.14326193     0.08660
H1824       H  0.43268998  0.11676252  0.13988018     0.07490
N1825       N  0.88453333  0.57288399  0.95053649    -0.26900
N1826       N  0.89272652  0.56338862  0.95256446    -0.34760
C1827       C  0.89841666  0.56512724  0.96403263     0.01440
C1828       C  0.89349749  0.57618697  0.96948062     0.07470
C1829       C  0.88467281  0.58084674  0.96074460    -0.05630
H1830       H  0.90553527  0.55876987  0.96813415     0.08140
H1831       H  0.87896479  0.58949052  0.96162817     0.09340
Cu1832     Cu  0.89551388  0.54823983  0.93991435     0.44170
Cu1833     Cu  0.87405506  0.57484930  0.93371138     0.41990
Cu1834     Cu  0.87612706  0.54820542  0.91113602     0.43880
N1835       N  0.89542903  0.53330115  0.92670603    -0.34280
N1836       N  0.88801453  0.53305303  0.91639212    -0.28540
C1837       C  0.88992108  0.52189708  0.91008759    -0.04640
C1838       C  0.89897998  0.51482433  0.91676647     0.07580
C1839       C  0.90234203  0.52239129  0.92717630     0.01370
H1840       H  0.88523849  0.51923091  0.90118924     0.09030
H1841       H  0.90922921  0.52008863  0.93460748     0.08100
N1842       N  0.86623318  0.56517644  0.90750096    -0.35730
N1843       N  0.86560754  0.57493302  0.91566425    -0.27910
C1844       C  0.85902477  0.58462733  0.91019194    -0.03150
C1845       C  0.85536745  0.58076276  0.89803368     0.05460
C1846       C  0.86000123  0.56838345  0.89664194     0.03550
H1847       H  0.85713173  0.59382400  0.91469345     0.08660
H1848       H  0.85909535  0.56224732  0.88828301     0.07490
N1849       N  0.81576048  0.63816916  0.80863974    -0.26900
N1850       N  0.80614343  0.64616967  0.80672289    -0.34760
C1851       C  0.80761070  0.65195131  0.79529614     0.01440
C1852       C  0.81855677  0.64714251  0.78936737     0.07470
C1853       C  0.82346175  0.63843771  0.79830531    -0.05630
H1854       H  0.80118508  0.65933619  0.79192647     0.08140
H1855       H  0.83207766  0.63273196  0.79751497     0.09340
Cu1856     Cu  0.79111287  0.64865255  0.81942243     0.44170
Cu1857     Cu  0.81834449  0.62805083  0.82566917     0.41990
Cu1858     Cu  0.79375869  0.63300527  0.85007171     0.43880
N1859       N  0.77683761  0.64922119  0.83318406    -0.34280
N1860       N  0.77793307  0.64378735  0.84461189    -0.28540
C1861       C  0.76727794  0.64622989  0.85145014    -0.04640
C1862       C  0.75905296  0.65335266  0.84384795     0.07580
C1863       C  0.76539283  0.65510406  0.83235307     0.01370
H1864       H  0.76560647  0.64298705  0.86117609     0.09030
H1865       H  0.76202690  0.66042242  0.82407964     0.08100
N1866       N  0.81017343  0.62208841  0.85287386    -0.35730
N1867       N  0.81908673  0.62025934  0.84404865    -0.27910
C1868       C  0.82842328  0.61285726  0.84903876    -0.03150
C1869       C  0.82517689  0.60974282  0.86155662     0.05460
C1870       C  0.81358439  0.61586590  0.86367014     0.03550
H1871       H  0.83693209  0.60991092  0.84390102     0.08660
H1872       H  0.80810000  0.61598392  0.87247365     0.07490
N1873       N  0.58370109  0.60692004  0.97156951    -0.26900
N1874       N  0.57278223  0.60049489  0.97211256    -0.34760
C1875       C  0.57244714  0.59368869  0.98306984     0.01440
C1876       C  0.58370644  0.59589112  0.98984354     0.07470
C1877       C  0.59053923  0.60449150  0.98226966    -0.05630
H1878       H  0.56458513  0.58748476  0.98582696     0.08140
H1879       H  0.59975031  0.60879796  0.98436335     0.09340
Cu1880     Cu  0.55873782  0.60128012  0.95802503     0.44170
Cu1881     Cu  0.58897074  0.61814299  0.95595334     0.41990
Cu1882     Cu  0.56670433  0.61854318  0.92898459     0.43880
N1883       N  0.54633423  0.60310150  0.94255780    -0.34280
N1884       N  0.54936917  0.60909758  0.93177826    -0.28540
C1885       C  0.53950931  0.60809476  0.92347959    -0.04640
C1886       C  0.52982174  0.60123179  0.92938943     0.07580
C1887       C  0.53441155  0.59826265  0.94147622     0.01370
H1888       H  0.53939142  0.61208151  0.91388379     0.09030
H1889       H  0.52955296  0.59278160  0.94884046     0.08100
N1890       N  0.58437642  0.62779268  0.92894979    -0.35730
N1891       N  0.59242501  0.62767166  0.93877784    -0.27910
C1892       C  0.60292734  0.63450820  0.93568727    -0.03150
C1893       C  0.60139615  0.63929993  0.92337073     0.05460
C1894       C  0.58955013  0.63474296  0.91936198     0.03550
H1895       H  0.61105903  0.63595406  0.94199470     0.08660
H1896       H  0.58505999  0.63624737  0.91010965     0.07490
N1897       N  0.69056893  0.67781289  0.86415916    -0.26900
N1898       N  0.69295277  0.68801250  0.85694690    -0.34760
C1899       C  0.70489241  0.68708351  0.85218620     0.01440
C1900       C  0.71033282  0.67587332  0.85681289     0.07470
C1901       C  0.70094763  0.67013860  0.86421459    -0.05630
H1902       H  0.70928181  0.69404338  0.84583414     0.08140
H1903       H  0.70160112  0.66104446  0.86923507     0.09340
Cu1904     Cu  0.67996717  0.70285405  0.85417262     0.44170
Cu1905     Cu  0.67332494  0.67487031  0.87362256     0.41990
Cu1906     Cu  0.65103355  0.70171073  0.87330574     0.43880
N1907       N  0.66602457  0.71706311  0.85388664    -0.34280
N1908       N  0.65565746  0.71688231  0.86114817    -0.28540
C1909       C  0.64883126  0.72764329  0.85893104    -0.04640
C1910       C  0.65508079  0.73488270  0.84964015     0.07580
C1911       C  0.66601310  0.72786627  0.84678781     0.01370
H1912       H  0.64003748  0.73004171  0.86385549     0.09030
H1913       H  0.67344600  0.73039620  0.84001320     0.08100
N1914       N  0.64773987  0.68453161  0.88299880    -0.35730
N1915       N  0.65568103  0.67463198  0.88279161    -0.27910
C1916       C  0.65047433  0.66484322  0.88944348    -0.03150
C1917       C  0.63874478  0.66880033  0.89430269     0.05460
C1918       C  0.63732827  0.68133026  0.88989183     0.03550
H1919       H  0.65486809  0.65547307  0.89044715     0.08660
H1920       H  0.62930085  0.68769397  0.89154872     0.07490
N1921       N  0.42340371  0.55314369  0.89340929    -0.26900
N1922       N  0.43380079  0.55035962  0.90012219    -0.34760
C1923       C  0.43258927  0.53842728  0.90499038     0.01440
C1924       C  0.42091783  0.53338418  0.90103778     0.07470
C1925       C  0.41531579  0.54305875  0.89381245    -0.05630
H1926       H  0.43962196  0.53384806  0.91111112     0.08140
H1927       H  0.40604696  0.54278374  0.88914068     0.09340
Cu1928     Cu  0.44916127  0.56290076  0.90236467     0.44170
Cu1929     Cu  0.42064381  0.57048756  0.88397320     0.41990
Cu1930     Cu  0.44747208  0.59266000  0.88433036     0.43880
N1931       N  0.46324506  0.57703777  0.90293184    -0.34280
N1932       N  0.46271610  0.58782079  0.89619978    -0.28540
C1933       C  0.47319835  0.59494384  0.89876964    -0.04640
C1934       C  0.48053917  0.58842139  0.90771139     0.07580
C1935       C  0.47406077  0.57703335  0.90999020     0.01370
H1936       H  0.47527048  0.60421669  0.89451414     0.09030
H1937       H  0.47696249  0.56934192  0.91636223     0.08100
N1938       N  0.43039672  0.59617033  0.87471280    -0.35730
N1939       N  0.42047182  0.58822681  0.87486775    -0.27910
C1940       C  0.41069795  0.59360858  0.86836230    -0.03150
C1941       C  0.41472214  0.60545208  0.86388812     0.05460
C1942       C  0.42724093  0.60677867  0.86801933     0.03550
H1943       H  0.40135287  0.58926357  0.86706567     0.08660
H1944       H  0.43348538  0.61496852  0.86653545     0.07490
N1945       N  0.35634979  0.69468871  0.82578024    -0.26900
N1946       N  0.35023362  0.69774846  0.81508526    -0.34760
C1947       C  0.34537601  0.70967065  0.81628245     0.01440
C1948       C  0.34867115  0.71444189  0.82827383     0.07470
C1949       C  0.35553343  0.70460040  0.83407793    -0.05630
H1950       H  0.33982320  0.71450625  0.80894876     0.08140
H1951       H  0.35946211  0.70453721  0.84370212     0.09340
Cu1952     Cu  0.34839805  0.68547045  0.79947216     0.44170
Cu1953     Cu  0.36541412  0.67711270  0.82853181     0.41990
Cu1954     Cu  0.36182187  0.65359406  0.80282909     0.43880
N1955       N  0.34671890  0.67122788  0.78559917    -0.34280
N1956       N  0.35126822  0.65944645  0.78697475    -0.28540
C1957       C  0.34812295  0.65244414  0.77655559    -0.04640
C1958       C  0.34145927  0.66025808  0.76803850     0.07580
C1959       C  0.34069549  0.67208270  0.77421269     0.01370
H1960       H  0.35040005  0.64235378  0.77541280     0.09030
H1961       H  0.33611733  0.68073333  0.77070147     0.08100
N1962       N  0.37262158  0.65050085  0.81928854    -0.35730
N1963       N  0.37390687  0.65903722  0.82863655    -0.27910
C1964       C  0.38142335  0.65403455  0.83786878    -0.03150
C1965       C  0.38515661  0.64179347  0.83412982     0.05460
C1966       C  0.37930002  0.63985681  0.82232565     0.03550
H1967       H  0.38401158  0.65897828  0.84665477     0.08660
H1968       H  0.37964544  0.63126097  0.81645828     0.07490
N1969       N  0.33255454  0.78171892  0.86136759    -0.26900
N1970       N  0.32279775  0.78234225  0.85329999    -0.34760
C1971       C  0.32251964  0.77158957  0.84611846     0.01440
C1972       C  0.33237901  0.76347412  0.85003006     0.07470
C1973       C  0.33856393  0.77039097  0.85970563    -0.05630
H1974       H  0.31571548  0.77010864  0.83843694     0.08140
H1975       H  0.34691733  0.76751680  0.86514372     0.09340
Cu1976     Cu  0.30971265  0.79734375  0.85276975     0.44170
Cu1977     Cu  0.33785419  0.79672713  0.87356059     0.41990
Cu1978     Cu  0.31598026  0.82370696  0.87422018     0.43880
N1979       N  0.29694809  0.81233175  0.85573836    -0.34280
N1980       N  0.29916597  0.82183618  0.86388478    -0.28540
C1981       C  0.28901523  0.82977322  0.86402004    -0.04640
C1982       C  0.28000055  0.82518386  0.85535539     0.07580
C1983       C  0.28532569  0.81400850  0.85039707     0.01370
H1984       H  0.28824996  0.83819250  0.87009484     0.09030
H1985       H  0.28109209  0.80757469  0.84338820     0.08100
N1986       N  0.33365576  0.82379394  0.88318998    -0.35730
N1987       N  0.34162300  0.81391516  0.88318395    -0.27910
C1988       C  0.35220640  0.81717118  0.88985949    -0.03150
C1989       C  0.35078618  0.82967701  0.89436037     0.05460
C1990       C  0.33895032  0.83358907  0.88977249     0.03550
H1991       H  0.36032879  0.81087879  0.89134249     0.08660
H1992       H  0.33453506  0.84293239  0.89095129     0.07490
N1993       N  0.40482507  0.89363425  0.97069088    -0.26900
N1994       N  0.41554057  0.90041343  0.97123642    -0.34760
C1995       C  0.41570209  0.90722520  0.98221897     0.01440
C1996       C  0.40451576  0.90469386  0.98893239     0.07470
C1997       C  0.39791686  0.89590355  0.98135207    -0.05630
H1998       H  0.42340179  0.91361254  0.98507382     0.08140
H1999       H  0.38883197  0.89135158  0.98345489     0.09340
Cu2000     Cu  0.42960496  0.89995212  0.95716870     0.44170
Cu2001     Cu  0.39998285  0.88188196  0.95530603     0.41990
Cu2002     Cu  0.42280776  0.88047014  0.92909840     0.43880
N2003       N  0.44245695  0.89734986  0.94219610    -0.34280
N2004       N  0.44001391  0.89012635  0.93200271    -0.28540
C2005       C  0.45025758  0.89031743  0.92417718    -0.04640
C2006       C  0.45957844  0.89796345  0.92975711     0.07580
C2007       C  0.45430330  0.90237456  0.94109943     0.01370
H2008       H  0.45082868  0.88536126  0.91505073     0.09030
H2009       H  0.45872841  0.90877603  0.94801921     0.08100
N2010       N  0.40504198  0.87144172  0.92872954    -0.35730
N2011       N  0.39685060  0.87178819  0.93838528    -0.27910
C2012       C  0.38639075  0.86490261  0.93522847    -0.03150
C2013       C  0.38804592  0.85989097  0.92299822     0.05460
C2014       C  0.39996174  0.86437967  0.91913940     0.03550
H2015       H  0.37819319  0.86360453  0.94143988     0.08660
H2016       H  0.40457330  0.86279747  0.90998155     0.07490
N2017       N  0.38857426  0.53229661  0.59413335    -0.26900
N2018       N  0.39379192  0.53124815  0.58263598    -0.34760
C2019       C  0.40007470  0.51999990  0.58185162     0.01440
C2020       C  0.39902090  0.51370242  0.59352919     0.07470
C2021       C  0.39152304  0.52176123  0.60103487    -0.05630
H2022       H  0.40497540  0.51667389  0.57333284     0.08140
H2023       H  0.38853496  0.52016952  0.61084926     0.09340
Cu2024     Cu  0.39253636  0.54524542  0.56861595     0.44170
Cu2025     Cu  0.37757173  0.54797122  0.59969832     0.41990
Cu2026     Cu  0.37199609  0.57232327  0.57510355     0.43880
N2027       N  0.38993225  0.56032106  0.55596279    -0.34280
N2028       N  0.38210141  0.57007634  0.55812575    -0.28540
C2029       C  0.38240940  0.57807501  0.54797692    -0.04640
C2030       C  0.39086791  0.57308489  0.53905422     0.07580
C2031       C  0.39555093  0.56190339  0.54447198     0.01370
H2032       H  0.37707797  0.58697517  0.54725440     0.09030
H2033       H  0.40247647  0.55536214  0.54034212     0.08100
N2034       N  0.36433607  0.57307839  0.59345117    -0.35730
N2035       N  0.36656632  0.56437933  0.60246432    -0.27910
C2036       C  0.36070297  0.56804403  0.61336478    -0.03150
C2037       C  0.35451482  0.57955602  0.61105644     0.05460
C2038       C  0.35693978  0.58246494  0.59835737     0.03550
H2039       H  0.36101060  0.56277491  0.62231907     0.08660
H2040       H  0.35380015  0.59090569  0.59314991     0.07490
N2041       N  0.27729226  0.64281357  0.66405552    -0.26900
N2042       N  0.27545194  0.64681888  0.67594565    -0.34760
C2043       C  0.26418425  0.65302469  0.67654699     0.01440
C2044       C  0.25856199  0.65303286  0.66442207     0.07470
C2045       C  0.26731361  0.64650739  0.65674727    -0.05630
H2046       H  0.26042696  0.65723968  0.68525662     0.08140
H2047       H  0.26678235  0.64475878  0.64653880     0.09340
Cu2048     Cu  0.28872923  0.64461500  0.69066314     0.44170
Cu2049     Cu  0.29322303  0.63237854  0.65831829     0.41990
Cu2050     Cu  0.31889019  0.63026765  0.68159756     0.43880
N2051       N  0.30456862  0.64380795  0.70273848    -0.34280
N2052       N  0.31575382  0.63908935  0.69917152    -0.28540
C2053       C  0.32426225  0.64080328  0.70872798    -0.04640
C2054       C  0.31819291  0.64692320  0.71889253     0.07580
C2055       C  0.30562254  0.64848900  0.71474642     0.01370
H2056       H  0.33420019  0.63791179  0.70820433     0.09030
H2057       H  0.29774277  0.65267725  0.72000996     0.08100
N2058       N  0.31916889  0.62100628  0.66395948    -0.35730
N2059       N  0.30976557  0.62171081  0.65546532    -0.27910
C2060       C  0.31281520  0.61452669  0.64516206    -0.03150
C2061       C  0.32467845  0.60893855  0.64731235     0.05460
C2062       C  0.32845414  0.61337206  0.65928765     0.03550
H2063       H  0.30691039  0.61361383  0.63665413     0.08660
H2064       H  0.33729124  0.61117663  0.66427456     0.07490
N2065       N  0.10275349  0.92554186  0.94947644    -0.26900
N2066       N  0.09678700  0.93628752  0.95260981    -0.34760
C2067       C  0.09215097  0.93512633  0.96457550     0.01440
C2068       C  0.09524435  0.92298598  0.96927197     0.07470
C2069       C  0.10185042  0.91716009  0.95925342    -0.05630
H2070       H  0.08694345  0.94266727  0.96946044     0.08140
H2071       H  0.10560483  0.90748680  0.95884501     0.09340
Cu2072     Cu  0.09477463  0.95184907  0.94032003     0.44170
Cu2073     Cu  0.11248566  0.92298685  0.93237551     0.41990
Cu2074     Cu  0.11329800  0.95069054  0.91118785     0.43880
N2075       N  0.09425586  0.96606585  0.92636995    -0.34280
N2076       N  0.10151373  0.96594125  0.91601429    -0.28540
C2077       C  0.09941870  0.97674970  0.90924585    -0.04640
C2078       C  0.09006969  0.98398054  0.91543218     0.07580
C2079       C  0.08712975  0.97682370  0.92632675     0.01370
H2080       H  0.10458957  0.97912685  0.90059575     0.09030
H2081       H  0.08030722  0.97919107  0.93375917     0.08100
N2082       N  0.12288198  0.93363263  0.90762110    -0.35730
N2083       N  0.12258010  0.92350927  0.91530245    -0.27910
C2084       C  0.12966748  0.91403493  0.91012708    -0.03150
C2085       C  0.13470258  0.91844021  0.89865184     0.05460
C2086       C  0.13009946  0.93085439  0.89732450     0.03550
H2087       H  0.13088664  0.90458414  0.91431816     0.08660
H2088       H  0.13187035  0.93740875  0.88945107     0.07490
N2089       N  0.21215518  0.85737389  0.84362377    -0.26900
N2090       N  0.21239507  0.85053546  0.83290610    -0.34760
C2091       C  0.22300703  0.84322662  0.83279966     0.01440
C2092       C  0.22976597  0.84558716  0.84398376     0.07470
C2093       C  0.22270550  0.85470286  0.85056832    -0.05630
H2094       H  0.22566882  0.83677206  0.82509110     0.08140
H2095       H  0.22496797  0.85893134  0.85980295     0.09340
Cu2096     Cu  0.19841184  0.85140804  0.81883889     0.44170
Cu2097     Cu  0.19711780  0.86937240  0.84864788     0.41990
Cu2098     Cu  0.16997381  0.86920304  0.82681599     0.43880
N2099       N  0.18301763  0.85350738  0.80649318    -0.34280
N2100       N  0.17251624  0.85994341  0.80948091    -0.28540
C2101       C  0.16418393  0.85923086  0.79964445    -0.04640
C2102       C  0.16970898  0.85190190  0.79010344     0.07580
C2103       C  0.18168443  0.84853438  0.79464792     0.01370
H2104       H  0.15477438  0.86359139  0.79952034     0.09030
H2105       H  0.18879824  0.84273253  0.78980444     0.08100
N2106       N  0.16999441  0.87835581  0.84440647    -0.35730
N2107       N  0.17998113  0.87877636  0.85221592    -0.27910
C2108       C  0.17687191  0.88569632  0.86266475    -0.03150
C2109       C  0.16432673  0.88988838  0.86135032     0.05460
C2110       C  0.16024485  0.88488359  0.84970344     0.03550
H2111       H  0.18329828  0.88752856  0.87062966     0.08660
H2112       H  0.15083703  0.88573372  0.84541291     0.07490
N2113       N  0.94223820  0.61188988  0.07652517    -0.26900
N2114       N  0.94520368  0.60500188  0.06625650    -0.34760
C2115       C  0.95696418  0.59994866  0.06786330     0.01440
C2116       C  0.96162652  0.60393964  0.07963911     0.07470
C2117       C  0.95201458  0.61135967  0.08495468    -0.05630
H2118       H  0.96171952  0.59374798  0.06101577     0.08140
H2119       H  0.95209670  0.61597992  0.09427409     0.09340
Cu2120     Cu  0.93300737  0.60240421  0.05068801     0.44170
Cu2121     Cu  0.92495316  0.62148674  0.07879030     0.41990
Cu2122     Cu  0.90111471  0.61554228  0.05434712     0.43880
N2123       N  0.91869523  0.60061516  0.03692145    -0.34280
N2124       N  0.90702926  0.60533820  0.03836174    -0.28540
C2125       C  0.89996526  0.60238458  0.02796143    -0.04640
C2126       C  0.90749292  0.59532858  0.01960392     0.07580
C2127       C  0.91936015  0.59452060  0.02553315     0.01370
H2128       H  0.89008393  0.60521536  0.02658068     0.09030
H2129       H  0.92780167  0.58969454  0.02192378     0.08100
N2130       N  0.89768073  0.62635496  0.07066447    -0.35730
N2131       N  0.90655422  0.62902927  0.07931696    -0.27910
C2132       C  0.90142654  0.63661950  0.08840500    -0.03150
C2133       C  0.88861178  0.63881595  0.08542747     0.05460
C2134       C  0.88661336  0.63195415  0.07413168     0.03550
H2135       H  0.90670391  0.64019200  0.09662021     0.08660
H2136       H  0.87775815  0.63075351  0.06887544     0.07490
N2137       N  0.79919166  0.67518753  0.14465810    -0.26900
N2138       N  0.79609099  0.68603699  0.15053709    -0.34760
C2139       C  0.78449184  0.68470936  0.15593155     0.01440
C2140       C  0.78015330  0.67236873  0.15354750     0.07470
C2141       C  0.78958581  0.66665194  0.14617239    -0.05630
H2142       H  0.77952326  0.69226478  0.16105390     0.08140
H2143       H  0.78948722  0.65700396  0.14223657     0.09340
Cu2144     Cu  0.80772937  0.70212281  0.15155938     0.44170
Cu2145     Cu  0.81642262  0.67252910  0.13505710     0.41990
Cu2146     Cu  0.83898667  0.69918404  0.13779544     0.43880
N2147       N  0.82171116  0.71610610  0.15343101    -0.34280
N2148       N  0.83339358  0.71482037  0.14872831    -0.28540
C2149       C  0.84052409  0.72500099  0.15233061    -0.04640
C2150       C  0.83288941  0.73306959  0.15956233     0.07580
C2151       C  0.82100987  0.72722394  0.16001757     0.01370
H2152       H  0.85049915  0.72641292  0.14988329     0.09030
H2153       H  0.81259520  0.73061972  0.16503258     0.08100
N2154       N  0.84262814  0.68240148  0.12774228    -0.35730
N2155       N  0.83455007  0.67260800  0.12683816    -0.27910
C2156       C  0.84013253  0.66311159  0.12005908    -0.03150
C2157       C  0.85233107  0.66709133  0.11672849     0.05460
C2158       C  0.85349816  0.67944266  0.12152066     0.03550
H2159       H  0.83568844  0.65395774  0.11781563     0.08660
H2160       H  0.86167585  0.68579748  0.12062986     0.07490
N2161       N  0.71161509  0.64183868  0.16662115    -0.26900
N2162       N  0.71185017  0.64921176  0.17696378    -0.34760
C2163       C  0.72287798  0.65592112  0.17711713     0.01440
C2164       C  0.72990565  0.65267695  0.16629496     0.07470
C2165       C  0.72248862  0.64359152  0.15995391    -0.05630
H2166       H  0.72556526  0.66268383  0.18456669     0.08140
H2167       H  0.72483897  0.63847770  0.15121806     0.09340
Cu2168     Cu  0.69739404  0.64931181  0.19062711     0.44170
Cu2169     Cu  0.69644142  0.62994795  0.16189923     0.41990
Cu2170     Cu  0.67133904  0.62655343  0.18544679     0.43880
N2171       N  0.68289628  0.64585238  0.20380608    -0.34280
N2172       N  0.67380458  0.63713139  0.20217744    -0.28540
C2173       C  0.66636946  0.63686089  0.21269725    -0.04640
C2174       C  0.67093822  0.64587862  0.22144366     0.07580
C2175       C  0.68134950  0.65150437  0.21531881     0.01370
H2176       H  0.65816530  0.63058563  0.21380722     0.09030
H2177       H  0.68728052  0.65931622  0.21878801     0.08100
N2178       N  0.67054661  0.61838015  0.16728238    -0.35730
N2179       N  0.67977675  0.61967380  0.15871056    -0.27910
C2180       C  0.67631427  0.61366088  0.14781800    -0.03150
C2181       C  0.66435042  0.60821040  0.14961351     0.05460
C2182       C  0.66093209  0.61148729  0.16205004     0.03550
H2183       H  0.68209511  0.61330596  0.13921086     0.08660
H2184       H  0.65202961  0.60924326  0.16686791     0.07490
N2185       N  0.62317244  0.57518697  0.09407230    -0.26900
N2186       N  0.62399543  0.56494161  0.10153278    -0.34760
C2187       C  0.63100180  0.56788746  0.11195491     0.01440
C2188       C  0.63482028  0.58065144  0.11111258     0.07470
C2189       C  0.62952369  0.58499564  0.09965918    -0.05630
H2190       H  0.63311067  0.56117080  0.11960341     0.08140
H2191       H  0.63000566  0.59461164  0.09571889     0.09340
Cu2192     Cu  0.61487931  0.54764316  0.09786744     0.44170
Cu2193     Cu  0.61366168  0.57520458  0.07654083     0.41990
Cu2194     Cu  0.59728139  0.54536162  0.06825937     0.43880
N2195       N  0.60313515  0.53225191  0.09334253    -0.34280
N2196       N  0.59653540  0.53144788  0.08251940    -0.28540
C2197       C  0.58935440  0.52068092  0.08275487    -0.04640
C2198       C  0.59145237  0.51455140  0.09434411     0.07580
C2199       C  0.60037648  0.52202164  0.10074799     0.01370
H2200       H  0.58299469  0.51760782  0.07511929     0.09030
H2201       H  0.60444322  0.52024531  0.11014801     0.08100
N2202       N  0.59849122  0.56117441  0.05615582    -0.35730
N2203       N  0.60425429  0.57211455  0.05921681    -0.27910
C2204       C  0.60298482  0.58044023  0.04939870    -0.03150
C2205       C  0.59591806  0.57451904  0.03981117     0.05460
C2206       C  0.59344997  0.56224051  0.04431293     0.03550
H2207       H  0.60687558  0.59010447  0.04926558     0.08660
H2208       H  0.58844319  0.55458792  0.03932740     0.07490
N2209       N  0.06773380  0.55403004  0.11556045    -0.26900
N2210       N  0.05742766  0.55115392  0.10873641    -0.34760
C2211       C  0.05872746  0.53922079  0.10389415     0.01440
C2212       C  0.07036344  0.53427125  0.10799362     0.07470
C2213       C  0.07586202  0.54400188  0.11526531    -0.05630
H2214       H  0.05176269  0.53456387  0.09772693     0.08140
H2215       H  0.08506965  0.54379372  0.12005896     0.09340
Cu2216     Cu  0.04201794  0.56352386  0.10649740     0.44170
Cu2217     Cu  0.07019850  0.57139770  0.12503170     0.41990
Cu2218     Cu  0.04375333  0.59398336  0.12356655     0.43880
N2219       N  0.02758434  0.57721441  0.10622434    -0.34280
N2220       N  0.02820899  0.58833316  0.11239581    -0.28540
C2221       C  0.01747233  0.59506854  0.10997305    -0.04640
C2222       C  0.00964390  0.58777550  0.10203332     0.07580
C2223       C  0.01642727  0.57656080  0.09976639     0.01370
H2224       H  0.01553629  0.60461821  0.11365149     0.09030
H2225       H  0.01375454  0.56870951  0.09348723     0.08100
N2226       N  0.06055228  0.59731400  0.13379075    -0.35730
N2227       N  0.07020236  0.58909045  0.13421351    -0.27910
C2228       C  0.07973056  0.59417249  0.14130457    -0.03150
C2229       C  0.07583869  0.60610002  0.14573916     0.05460
C2230       C  0.06369829  0.60785360  0.14063912     0.03550
H2231       H  0.08897474  0.58968915  0.14264897     0.08660
H2232       H  0.05764389  0.61623148  0.14173701     0.07490
N2233       N  0.13605042  0.69570834  0.18256810    -0.26900
N2234       N  0.14184470  0.69907052  0.19337515    -0.34760
C2235       C  0.14594206  0.71132213  0.19237395     0.01440
C2236       C  0.14237168  0.71589924  0.18044366     0.07470
C2237       C  0.13627084  0.70573304  0.17440928    -0.05630
H2238       H  0.15115117  0.71648860  0.19975795     0.08140
H2239       H  0.13229938  0.70562867  0.16480129     0.09340
Cu2240     Cu  0.14384779  0.68682509  0.20893866     0.44170
Cu2241     Cu  0.12778071  0.67779627  0.17951671     0.41990
Cu2242     Cu  0.12670530  0.65647735  0.20697436     0.43880
N2243       N  0.14468787  0.67268642  0.22293160    -0.34280
N2244       N  0.13852864  0.66157303  0.22220739    -0.28540
C2245       C  0.14136858  0.65449577  0.23264619    -0.04640
C2246       C  0.14973493  0.66149845  0.24030399     0.07580
C2247       C  0.15153430  0.67301539  0.23387233     0.01370
H2248       H  0.13747775  0.64503296  0.23457390     0.09030
H2249       H  0.15750696  0.68101055  0.23685254     0.08100
N2250       N  0.11702413  0.65298846  0.18989363    -0.35730
N2251       N  0.11803915  0.66038618  0.17964325    -0.27910
C2252       C  0.11133002  0.65507852  0.16995296    -0.03150
C2253       C  0.10544096  0.64391120  0.17435723     0.05460
C2254       C  0.10942181  0.64291345  0.18707113     0.03550
H2255       H  0.11102678  0.65905426  0.16037463     0.08660
H2256       H  0.10704639  0.63539751  0.19384291     0.07490
N2257       N  0.18956211  0.82276336  0.14255834    -0.26900
N2258       N  0.19171445  0.81328817  0.15072035    -0.34760
C2259       C  0.20308005  0.81522256  0.15648891     0.01440
C2260       C  0.20848873  0.82647244  0.15172692     0.07470
C2261       C  0.19963907  0.83086024  0.14273837    -0.05630
H2262       H  0.20706603  0.80884813  0.16366215     0.08140
H2263       H  0.20043907  0.83920348  0.13659738     0.09340
Cu2264     Cu  0.17942568  0.79782410  0.15324485     0.44170
Cu2265     Cu  0.17266672  0.82450932  0.13214187     0.41990
Cu2266     Cu  0.14938910  0.79862271  0.13595962     0.43880
N2267       N  0.16613489  0.78300131  0.15361608    -0.34280
N2268       N  0.15507803  0.78331411  0.14740770    -0.28540
C2269       C  0.14860744  0.77236443  0.14980491    -0.04640
C2270       C  0.15603053  0.76472187  0.15777213     0.07580
C2271       C  0.16704363  0.77182277  0.16004972     0.01370
H2272       H  0.13921586  0.77011096  0.14598387     0.09030
H2273       H  0.17504001  0.76918068  0.16612581     0.08100
N2274       N  0.14609412  0.81512159  0.12523257    -0.35730
N2275       N  0.15449321  0.82459053  0.12397539    -0.27910
C2276       C  0.14921806  0.83401768  0.11687599    -0.03150
C2277       C  0.13699549  0.83022206  0.11332773     0.05460
C2278       C  0.13530444  0.81822828  0.11886359     0.03550
H2279       H  0.15393082  0.84298736  0.11448566     0.08660
H2280       H  0.12676608  0.81231033  0.11851471     0.07490
N2281       N  0.08163062  0.87012472  0.07976754    -0.26900
N2282       N  0.09034808  0.87185663  0.07071590    -0.34760
C2283       C  0.10124550  0.86590897  0.07423147     0.01440
C2284       C  0.09928372  0.86024571  0.08605593     0.07470
C2285       C  0.08674007  0.86298600  0.08925727    -0.05630
H2286       H  0.10995477  0.86575332  0.06861408     0.08140
H2287       H  0.08174380  0.86012744  0.09789346     0.09340
Cu2288     Cu  0.08714539  0.88213650  0.05393214     0.44170
Cu2289     Cu  0.06327874  0.87774754  0.07902534     0.41990
Cu2290     Cu  0.05494985  0.89366420  0.04935249     0.43880
N2291       N  0.08121784  0.89215222  0.03774669    -0.34280
N2292       N  0.06929689  0.89601061  0.03594616    -0.28540
C2293       C  0.06844046  0.90208333  0.02459375    -0.04640
C2294       C  0.08048263  0.90229694  0.01901759     0.07580
C2295       C  0.08831071  0.89577053  0.02760505     0.01370
H2296       H  0.05965424  0.90602477  0.02073348     0.09030
H2297       H  0.09846367  0.89391969  0.02664900     0.08100
N2298       N  0.04278043  0.89233696  0.06489309    -0.35730
N2299       N  0.04580145  0.88668509  0.07581250    -0.27910
C2300       C  0.03603103  0.88811553  0.08406433    -0.03150
C2301       C  0.02624978  0.89506049  0.07810515     0.05460
C2302       C  0.03104924  0.89749371  0.06587352     0.03550
H2303       H  0.03625891  0.88447533  0.09378583     0.08660
H2304       H  0.02668228  0.90273023  0.05807899     0.07490
C2305       C  0.11041347  0.83974922  0.09017710    -0.11880
C2306       C  0.10861121  0.85269514  0.09351493     0.05130
C2307       C  0.11636046  0.85836059  0.10315560    -0.07160
C2308       C  0.12577114  0.85080591  0.10918243    -0.07910
C2309       C  0.12749098  0.83779184  0.10597160    -0.02460
C2310       C  0.11982478  0.83221254  0.09620858     0.04360
N2311       N  0.12187260  0.81922236  0.09184076     0.66860
H2312       H  0.10467375  0.83559903  0.08252597     0.15760
H2313       H  0.13159217  0.85502259  0.11672910     0.15470
N2314       N  0.11497111  0.87167114  0.10686702     0.74570
O2315       O  0.11259908  0.81265945  0.08756342    -0.38880
O2316       O  0.13310961  0.81491809  0.09056727    -0.38820
O2317       O  0.10413545  0.87705239  0.10674181    -0.39530
O2318       O  0.12440509  0.87776395  0.11147402    -0.39590
C2319       C  0.14001101  0.75009435  0.16765626    -0.11880
C2320       C  0.15257570  0.75204061  0.16327006     0.05130
C2321       C  0.16168825  0.74210009  0.16474084    -0.07160
C2322       C  0.15805262  0.73053901  0.17063208    -0.07910
C2323       C  0.14546390  0.72852511  0.17483437    -0.02460
C2324       C  0.13626794  0.73847823  0.17350831     0.04360
N2325       N  0.12337550  0.73730462  0.17841104     0.66860
H2326       H  0.13309371  0.75780334  0.16667639     0.15760
H2327       H  0.16502981  0.72287061  0.17159900     0.15470
N2328       N  0.17445756  0.74331894  0.15978954     0.74570
O2329       O  0.11701708  0.74727817  0.18113219    -0.38880
O2330       O  0.11802626  0.72646521  0.17958201    -0.38820
O2331       O  0.18387909  0.73937286  0.16630717    -0.39530
O2332       O  0.17620374  0.74678352  0.14830551    -0.39590
C2333       C  0.08420718  0.62824337  0.14865162    -0.11880
C2334       C  0.08342042  0.61556705  0.15318205     0.05130
C2335       C  0.08926984  0.61243304  0.16499431    -0.07160
C2336       C  0.09620837  0.62186274  0.17169178    -0.07910
C2337       C  0.09731111  0.63455216  0.16706740    -0.02460
C2338       C  0.09084034  0.63780671  0.15551510     0.04360
N2339       N  0.09019257  0.65081149  0.15094943     0.66860
H2340       H  0.07933976  0.63081448  0.13981147     0.15760
H2341       H  0.10086715  0.61907901  0.18055413     0.15470
N2342       N  0.08757583  0.60004133  0.17080091     0.74570
O2343       O  0.09169496  0.65314895  0.13914969    -0.38880
O2344       O  0.08591398  0.65955806  0.15819123    -0.38820
O2345       O  0.09324147  0.59035972  0.16621184    -0.39530
O2346       O  0.08284722  0.59931729  0.18192619    -0.39590
C2347       C  0.64199584  0.58397592  0.13369286    -0.11880
C2348       C  0.64247259  0.58792721  0.12078126     0.05130
C2349       C  0.65025622  0.59860284  0.11750220    -0.07160
C2350       C  0.65709826  0.60508931  0.12714049    -0.07910
C2351       C  0.65675328  0.60099045  0.13997279    -0.02460
C2352       C  0.64921720  0.59016983  0.14326148     0.04360
N2353       N  0.64929920  0.58489244  0.15602144     0.66860
H2354       H  0.63614157  0.57580395  0.13638784     0.15760
H2355       H  0.66294273  0.61330748  0.12451323     0.15470
N2356       N  0.65189299  0.60263919  0.10444437     0.74570
O2357       O  0.63919233  0.58009985  0.16066074    -0.38880
O2358       O  0.65978938  0.58316982  0.16183350    -0.38820
O2359       O  0.65133099  0.61445317  0.10164314    -0.39530
O2360       O  0.65597634  0.59475584  0.09617722    -0.39590
C2361       C  0.75914316  0.66344209  0.14712750    -0.11880
C2362       C  0.76756215  0.66697133  0.15702243     0.05130
C2363       C  0.76374409  0.66539631  0.16992992    -0.07160
C2364       C  0.75146002  0.66064519  0.17260271    -0.07910
C2365       C  0.74278769  0.65756676  0.16272513    -0.02460
C2366       C  0.74672740  0.65899042  0.14978692     0.04360
N2367       N  0.73812750  0.65668521  0.13925307     0.66860
H2368       H  0.76206452  0.66471063  0.13722181     0.15760
H2369       H  0.74869880  0.65931337  0.18253868     0.15470
N2370       N  0.77235243  0.66789398  0.18042050     0.74570
O2371       O  0.72726362  0.66201728  0.13905267    -0.38880
O2372       O  0.74209691  0.65103803  0.12928375    -0.38820
O2373       O  0.77706089  0.67898178  0.18198524    -0.39530
O2374       O  0.77346917  0.65972120  0.18931971    -0.39590
C2375       C  0.97489474  0.58795035  0.09097593    -0.11880
C2376       C  0.97389913  0.60028261  0.08560733     0.05130
C2377       C  0.98471127  0.60855362  0.08560275    -0.07160
C2378       C  0.99625063  0.60413507  0.09102802    -0.07910
C2379       C  0.99727263  0.59175256  0.09631769    -0.02460
C2380       C  0.98643758  0.58361137  0.09630860     0.04360
N2381       N  0.98676941  0.57120127  0.10225299     0.66860
H2382       H  0.96661574  0.58162571  0.09101991     0.15760
H2383       H  0.00456538  0.61040036  0.09108411     0.15470
N2384       N  0.98434826  0.62121424  0.07991809     0.74570
O2385       O  0.98038747  0.56930974  0.11236013    -0.38880
O2386       O  0.99075002  0.56163472  0.09594568    -0.38820
O2387       O  0.97421610  0.62783002  0.08000261    -0.39530
O2388       O  0.99450105  0.62628313  0.07568035    -0.39590
C2389       C  0.88179867  0.64841135  0.10629626    -0.11880
C2390       C  0.87916981  0.64629307  0.09319597     0.05130
C2391       C  0.86752023  0.65109620  0.08805876    -0.07160
C2392       C  0.85890534  0.65761389  0.09606662    -0.07910
C2393       C  0.86177686  0.65997852  0.10899181    -0.02460
C2394       C  0.87337461  0.65529430  0.11423389     0.04360
N2395       N  0.87656184  0.65685186  0.12761370     0.66860
H2396       H  0.89049338  0.64463999  0.11052001     0.15760
H2397       H  0.85003022  0.66125747  0.09204181     0.15470
N2398       N  0.86443949  0.65000870  0.07469504     0.74570
O2399       O  0.88254512  0.64806051  0.13345650    -0.38880
O2400       O  0.87497828  0.66752487  0.13317833    -0.38820
O2401       O  0.85364279  0.64565765  0.07130614    -0.39530
O2402       O  0.87152137  0.65535116  0.06644888    -0.39590
C2403       C  0.09413703  0.90205891  0.99951447    -0.11880
C2404       C  0.08425098  0.90794095  0.00647946     0.05130
C2405       C  0.07814761  0.91890494  0.00123228    -0.07160
C2406       C  0.08175692  0.92333580  0.98904357    -0.07910
C2407       C  0.09177826  0.91756851  0.98209292    -0.02460
C2408       C  0.09812603  0.90684681  0.98759975     0.04360
N2409       N  0.10898521  0.90097890  0.98162147     0.66860
H2410       H  0.09898280  0.89371122  0.00342252     0.15760
H2411       H  0.07676998  0.93157954  0.98514338     0.15470
N2412       N  0.06880148  0.92610787  0.00833926     0.74570
O2413       O  0.11924800  0.90730818  0.98039863    -0.38880
O2414       O  0.10906478  0.88897933  0.97965443    -0.38820
O2415       O  0.07129130  0.92979252  0.01963341    -0.39530
O2416       O  0.05905783  0.93058332  0.00269536    -0.39590
C2417       C  0.15947288  0.89609468  0.88386530    -0.11880
C2418       C  0.15683913  0.89756812  0.87070996     0.05130
C2419       C  0.14704800  0.90616911  0.86685710    -0.07160
C2420       C  0.13998829  0.91274710  0.87621233    -0.07910
C2421       C  0.14265133  0.91128653  0.88933557    -0.02460
C2422       C  0.15266325  0.90298574  0.89321566     0.04360
N2423       N  0.15646018  0.90187827  0.90645039     0.66860
H2424       H  0.16701339  0.88962584  0.88692586     0.15760
H2425       H  0.13241927  0.91920532  0.87317483     0.15470
N2426       N  0.14449046  0.90882803  0.85357189     0.74570
O2427       O  0.16036521  0.89122134  0.91077007    -0.38880
O2428       O  0.15776817  0.91185555  0.91327370    -0.38820
O2429       O  0.13306868  0.90980111  0.84966550    -0.39530
O2430       O  0.15351150  0.91216649  0.84622638    -0.39590
C2431       C  0.33392096  0.58505246  0.62116785    -0.11880
C2432       C  0.34713184  0.58726389  0.62029135     0.05130
C2433       C  0.35308236  0.59620827  0.62865212    -0.07160
C2434       C  0.34549632  0.60283355  0.63761014    -0.07910
C2435       C  0.33220691  0.60081006  0.63838114    -0.02460
C2436       C  0.32638632  0.59155311  0.63024476     0.04360
N2437       N  0.31309046  0.58812012  0.63150596     0.66860
H2438       H  0.32952138  0.57788388  0.61498765     0.15760
H2439       H  0.34995644  0.60997241  0.64376767     0.15470
N2440       N  0.36666900  0.59875976  0.62820019     0.74570
O2441       O  0.30669485  0.58480959  0.62173352    -0.38880
O2442       O  0.30826716  0.58651457  0.64250096    -0.38820
O2443       O  0.37276205  0.59802661  0.61776665    -0.39530
O2444       O  0.37243994  0.60287401  0.63806125    -0.39590
C2445       C  0.25708209  0.82216859  0.84952658    -0.11880
C2446       C  0.26719933  0.83065247  0.85239276     0.05130
C2447       C  0.26475713  0.84406386  0.85279912    -0.07160
C2448       C  0.25225429  0.84855140  0.85074372    -0.07910
C2449       C  0.24224616  0.84007668  0.84768947    -0.02460
C2450       C  0.24461647  0.82668436  0.84719931     0.04360
N2451       N  0.23447845  0.81754627  0.84483458     0.66860
H2452       H  0.25880450  0.81188442  0.84947644     0.15760
H2453       H  0.25047194  0.85883484  0.85076886     0.15470
N2454       N  0.27490492  0.85330632  0.85435024     0.74570
O2455       O  0.23691511  0.80688158  0.83954346    -0.38880
O2456       O  0.22341059  0.81940733  0.84934402    -0.38820
O2457       O  0.28496023  0.85236966  0.84769212    -0.39530
O2458       O  0.27300948  0.86347497  0.86072545    -0.39590
C2459       C  0.37329718  0.83540037  0.89988427    -0.11880
C2460       C  0.36014904  0.83731771  0.90199210     0.05130
C2461       C  0.35627173  0.84659855  0.91116316    -0.07160
C2462       C  0.36558115  0.85387609  0.91767343    -0.07910
C2463       C  0.37873489  0.85189435  0.91564994    -0.02460
C2464       C  0.38261082  0.84239655  0.90670912     0.04360
N2465       N  0.39586362  0.83924897  0.90485890     0.66860
H2466       H  0.37639775  0.82825788  0.89296960     0.15760
H2467       H  0.36246490  0.86104081  0.92455551     0.15470
N2468       N  0.34303765  0.84836288  0.91448599     0.74570
O2469       O  0.40280968  0.83645586  0.91439744    -0.38880
O2470       O  0.40009900  0.83731178  0.89367429    -0.38820
O2471       O  0.33618518  0.83875283  0.91733240    -0.39530
O2472       O  0.33875049  0.85954399  0.91652215    -0.39590
C2473       C  0.32496259  0.66351735  0.75102400    -0.11880
C2474       C  0.33583599  0.65680513  0.75532580     0.05130
C2475       C  0.34098414  0.64700813  0.74741407    -0.07160
C2476       C  0.33485271  0.64386082  0.73581665    -0.07910
C2477       C  0.32406116  0.65067208  0.73143200    -0.02460
C2478       C  0.31925065  0.66084112  0.73910367     0.04360
N2479       N  0.30911106  0.66905921  0.73472353     0.66860
H2480       H  0.32096421  0.67115540  0.75685097     0.15760
H2481       H  0.33880153  0.63615475  0.73005012     0.15470
N2482       N  0.35279000  0.64065849  0.75053999     0.74570
O2483       O  0.30025624  0.67226784  0.74232152    -0.38880
O2484       O  0.31019875  0.67489443  0.72414900    -0.38820
O2485       O  0.35388320  0.62867446  0.74880145    -0.39530
O2486       O  0.36269835  0.64724750  0.75291017    -0.39590
C2487       C  0.33257789  0.73176755  0.83106976    -0.11880
C2488       C  0.34485095  0.72703482  0.83383289     0.05130
C2489       C  0.35290497  0.73416571  0.84214991    -0.07160
C2490       C  0.34846593  0.74578348  0.84743128    -0.07910
C2491       C  0.33614566  0.75060780  0.84469092    -0.02460
C2492       C  0.32803688  0.74321743  0.83655792     0.04360
N2493       N  0.31495365  0.74667148  0.83425855     0.66860
H2494       H  0.32617479  0.72619688  0.82501003     0.15760
H2495       H  0.35499292  0.75126466  0.85339193     0.15470
N2496       N  0.36579783  0.73015690  0.84488213     0.74570
O2497       O  0.31064784  0.74683171  0.82291732    -0.38880
O2498       O  0.30721298  0.74721435  0.84354368    -0.38820
O2499       O  0.37312701  0.72675415  0.83586839    -0.39530
O2500       O  0.37041520  0.73170207  0.85599837    -0.39590
C2501       C  0.40854589  0.61515222  0.84321161    -0.11880
C2502       C  0.40716936  0.61489625  0.85658149     0.05130
C2503       C  0.39858785  0.62350165  0.86263380    -0.07160
C2504       C  0.39164315  0.63222227  0.85501256    -0.07910
C2505       C  0.39305855  0.63257735  0.84160075    -0.02460
C2506       C  0.40167372  0.62393190  0.83565223     0.04360
N2507       N  0.40397530  0.62425351  0.82207935     0.66860
H2508       H  0.41520240  0.60859368  0.83863368     0.15760
H2509       H  0.38499765  0.63876827  0.85960034     0.15470
N2510       N  0.39673028  0.62353836  0.87635960     0.74570
O2511       O  0.40708323  0.63469290  0.81670875    -0.38880
O2512       O  0.40458510  0.61387700  0.81578003    -0.38820
O2513       O  0.40578005  0.62070710  0.88390448    -0.39530
O2514       O  0.38628561  0.62745218  0.88105102    -0.39590
C2515       C  0.57724766  0.58718748  0.01111653    -0.11880
C2516       C  0.58718596  0.59040850  0.00259866     0.05130
C2517       C  0.60003707  0.58847941  0.00658349    -0.07160
C2518       C  0.60254047  0.58348976  0.01886309    -0.07910
C2519       C  0.59257044  0.57990126  0.02712430    -0.02460
C2520       C  0.57973696  0.58189065  0.02325395     0.04360
N2521       N  0.56914001  0.57931595  0.03167626     0.66860
H2522       H  0.56737619  0.58886589  0.00837199     0.15760
H2523       H  0.61238813  0.58196724  0.02183050     0.15470
N2524       N  0.61064036  0.59089980  0.99818041     0.74570
O2525       O  0.55995740  0.58719401  0.03230367    -0.38880
O2526       O  0.56789314  0.56840918  0.03684761    -0.38820
O2527       O  0.62049644  0.59658849  0.00238999    -0.39530
O2528       O  0.61103765  0.58556829  0.98728648    -0.39590
C2529       C  0.50643834  0.60439501  0.92795789    -0.11880
C2530       C  0.51730490  0.59762923  0.92389079     0.05130
C2531       C  0.51608139  0.58790070  0.91445121    -0.07160
C2532       C  0.50392111  0.58538027  0.90918236    -0.07910
C2533       C  0.49305964  0.59227339  0.91309859    -0.02460
C2534       C  0.49428722  0.60193432  0.92264042     0.04360
N2535       N  0.48341234  0.60904523  0.92734415     0.66860
H2536       H  0.50749757  0.61184080  0.93519165     0.15760
H2537       H  0.50283798  0.57780181  0.90209222     0.15470
N2538       N  0.52689634  0.58032681  0.91032844     0.74570
O2539       O  0.48327403  0.61304534  0.93880038    -0.38880
O2540       O  0.47463274  0.61263415  0.91981462    -0.38820
O2541       O  0.53593881  0.57777468  0.91798535    -0.39530
O2542       O  0.52683094  0.57504890  0.89939674    -0.39590
C2543       C  0.62383433  0.64435662  0.91728873    -0.11880
C2544       C  0.61074004  0.64715615  0.91602609     0.05130
C2545       C  0.60691629  0.65726234  0.90776585    -0.07160
C2546       C  0.61624702  0.66399930  0.90074628    -0.07910
C2547       C  0.62937961  0.66125435  0.90204087    -0.02460
C2548       C  0.63318148  0.65136038  0.91058915     0.04360
N2549       N  0.64642881  0.64864818  0.91309556     0.66860
H2550       H  0.62687086  0.63673010  0.92370243     0.15760
H2551       H  0.61317633  0.67160187  0.89433490     0.15470
N2552       N  0.59376524  0.66126462  0.90684317     0.74570
O2553       O  0.65385817  0.65758318  0.91664291    -0.38880
O2554       O  0.65021507  0.63712448  0.91377209    -0.38820
O2555       O  0.58722829  0.66290977  0.91690051    -0.39530
O2556       O  0.58929016  0.66505196  0.89622464    -0.39590
C2557       C  0.74608136  0.66889741  0.85608363    -0.11880
C2558       C  0.74644308  0.65857095  0.84742447     0.05130
C2559       C  0.73493859  0.65394769  0.84187889    -0.07160
C2560       C  0.72334522  0.66000805  0.84507826    -0.07910
C2561       C  0.72298488  0.67048931  0.85357508    -0.02460
C2562       C  0.73451035  0.67505754  0.85920323     0.04360
N2563       N  0.73473974  0.68564215  0.86819761     0.66860
H2564       H  0.75498927  0.67239446  0.86018491     0.15760
H2565       H  0.71444398  0.65643528  0.84102728     0.15470
N2566       N  0.73476820  0.64305178  0.83327181     0.74570
O2567       O  0.74375005  0.68659305  0.87626329    -0.38880
O2568       O  0.72674809  0.69471191  0.86739997    -0.38820
O2569       O  0.74292602  0.63414941  0.83435481    -0.39530
O2570       O  0.72567236  0.64163861  0.82537152    -0.39590
C2571       C  0.88828201  0.58071690  0.99211242    -0.11880
C2572       C  0.89702489  0.58178147  0.98198486     0.05130
C2573       C  0.90928368  0.58715972  0.98421994    -0.07160
C2574       C  0.91251182  0.59118545  0.99670253    -0.07910
C2575       C  0.90378706  0.59010471  0.00689119    -0.02460
C2576       C  0.89157190  0.58458853  0.00461140     0.04360
N2577       N  0.88274536  0.58210020  0.01491357     0.66860
H2578       H  0.87904003  0.57625248  0.99037418     0.15760
H2579       H  0.92178210  0.59558587  0.99841521     0.15470
N2580       N  0.91839683  0.58889846  0.97397120     0.74570
O2581       O  0.87081910  0.58267942  0.01292555    -0.38880
O2582       O  0.88673407  0.57747742  0.02539596    -0.38820
O2583       O  0.91465254  0.59117692  0.96266097    -0.39530
O2584       O  0.93023919  0.58949922  0.97642620    -0.39590
C2585       C  0.83462426  0.58702706  0.88865913    -0.11880
C2586       C  0.84799038  0.58821074  0.88854936     0.05130
C2587       C  0.85393855  0.59650747  0.87956952    -0.07160
C2588       C  0.84620705  0.60328855  0.87080380    -0.07910
C2589       C  0.83279872  0.60201854  0.87080297    -0.02460
C2590       C  0.82696512  0.59373040  0.87984709     0.04360
N2591       N  0.81338487  0.59156214  0.87989426     0.66860
H2592       H  0.83011979  0.58060961  0.89551275     0.15760
H2593       H  0.85069601  0.60971222  0.86395975     0.15470
N2594       N  0.86764503  0.59835245  0.87927958     0.74570
O2595       O  0.80771490  0.58820117  0.86970194    -0.38880
O2596       O  0.80734995  0.59135395  0.89038776    -0.38820
O2597       O  0.87519076  0.58942228  0.88248740    -0.39530
O2598       O  0.87230833  0.60869147  0.87492674    -0.39590
C2599       C  0.40087162  0.13813175  0.15831658    -0.11880
C2600       C  0.39211850  0.13341816  0.16740096     0.05130
C2601       C  0.39071922  0.11992830  0.16882503    -0.07160
C2602       C  0.39828176  0.11161596  0.16140298    -0.07910
C2603       C  0.40688415  0.11633127  0.15216704    -0.02460
C2604       C  0.40804542  0.12981582  0.15053674     0.04360
N2605       N  0.41585572  0.13528437  0.14061567     0.66860
H2606       H  0.40198948  0.14842308  0.15703277     0.15760
H2607       H  0.39719723  0.10132523  0.16270847     0.15470
N2608       N  0.38123737  0.11444073  0.17716197     0.74570
O2609       O  0.41414008  0.13194940  0.12907476    -0.38880
O2610       O  0.42290139  0.14488204  0.14304855    -0.38820
O2611       O  0.36967492  0.11787514  0.17618454    -0.39530
O2612       O  0.38396553  0.10472911  0.18391828    -0.39590
C2613       C  0.31735268  0.15562726  0.26811174    -0.11880
C2614       C  0.32558254  0.15052142  0.27752281     0.05130
C2615       C  0.33868480  0.14870059  0.27445412    -0.07160
C2616       C  0.34307506  0.15174855  0.26209627    -0.07910
C2617       C  0.33486782  0.15710917  0.25287279    -0.02460
C2618       C  0.32187052  0.15901568  0.25594236     0.04360
N2619       N  0.31296319  0.16370662  0.24660798     0.66860
H2620       H  0.30724320  0.15684361  0.27009423     0.15760
H2621       H  0.35313456  0.15047091  0.25986586     0.15470
N2622       N  0.34782327  0.14450910  0.28386311     0.74570
O2623       O  0.30562377  0.15584602  0.24096969    -0.38880
O2624       O  0.31035717  0.17556515  0.24630612    -0.38820
O2625       O  0.35617684  0.13624768  0.28089452    -0.39530
O2626       O  0.34891073  0.15053866  0.29434553    -0.39590
C2627       C  0.34404058  0.09642268  0.36721633    -0.11880
C2628       C  0.33201111  0.10120083  0.37109460     0.05130
C2629       C  0.32819019  0.09909915  0.38402374    -0.07160
C2630       C  0.33653748  0.09298050  0.39260355    -0.07910
C2631       C  0.34838813  0.08823002  0.38857716    -0.02460
C2632       C  0.35223145  0.08995642  0.37571950     0.04360
N2633       N  0.36454777  0.08565419  0.37124454     0.66860
H2634       H  0.34740300  0.09791119  0.35747863     0.15760
H2635       H  0.33343628  0.09133924  0.40242705     0.15470
N2636       N  0.31567615  0.10232204  0.38855101     0.74570
O2637       O  0.36588382  0.08192694  0.35977711    -0.38880
O2638       O  0.37438426  0.08693636  0.37821460    -0.38820
O2639       O  0.30614339  0.09590714  0.38464831    -0.39530
O2640       O  0.31448558  0.10946126  0.39829718    -0.39590
C2641       C  0.41238217  0.98622763  0.39708168    -0.11880
C2642       C  0.41526486  0.97750272  0.40692150     0.05130
C2643       C  0.41238792  0.98076855  0.41976584    -0.07160
C2644       C  0.40697204  0.99281857  0.42244094    -0.07910
C2645       C  0.40446133  0.00179481  0.41266476    -0.02460
C2646       C  0.40724174  0.99840231  0.39978363     0.04360
N2647       N  0.40552791  0.00730459  0.38939995     0.66860
H2648       H  0.41457662  0.98370894  0.38721986     0.15760
H2649       H  0.40461847  0.99512542  0.43230455     0.15470
N2650       N  0.41415273  0.97179680  0.43011212     0.74570
O2651       O  0.41080127  0.01824750  0.38984763    -0.38880
O2652       O  0.40053017  0.00354172  0.37899505    -0.38820
O2653       O  0.42500600  0.96688118  0.43218305    -0.39530
O2654       O  0.40547584  0.97045346  0.43843780    -0.39590
C2655       C  0.38873172  0.87836334  0.34291329    -0.11880
C2656       C  0.39340883  0.86581395  0.34161011     0.05130
C2657       C  0.40482903  0.86235883  0.34803009    -0.07160
C2658       C  0.41112501  0.87152597  0.35571262    -0.07910
C2659       C  0.40647435  0.88419355  0.35717424    -0.02460
C2660       C  0.39492162  0.88745525  0.35070247     0.04360
N2661       N  0.38888474  0.89968146  0.35224452     0.66860
H2662       H  0.37981392  0.88102948  0.33823212     0.15760
H2663       H  0.41992611  0.86860536  0.36040032     0.15470
N2664       N  0.41045580  0.84981362  0.34648854     0.74570
O2665       O  0.38811546  0.90720655  0.34276308    -0.38880
O2666       O  0.38176173  0.90154268  0.36185143    -0.38820
O2667       O  0.41099969  0.84464431  0.33552290    -0.39530
O2668       O  0.41634057  0.84461284  0.35573320    -0.39590
C2669       C  0.10336113  0.37506284  0.34758553    -0.11880
C2670       C  0.09652281  0.36579053  0.34060750     0.05130
C2671       C  0.08298427  0.36560253  0.34115124    -0.07160
C2672       C  0.07669569  0.37472629  0.34886806    -0.07910
C2673       C  0.08351280  0.38382992  0.35622295    -0.02460
C2674       C  0.09708227  0.38392773  0.35553837     0.04360
N2675       N  0.10471982  0.39239611  0.36330443     0.66860
H2676       H  0.11374625  0.37509286  0.34721210     0.15760
H2677       H  0.06632893  0.37465941  0.34915046     0.15470
N2678       N  0.07544323  0.35649618  0.33386034     0.74570
O2679       O  0.10359606  0.39219539  0.37537226    -0.38880
O2680       O  0.11398386  0.39843443  0.35835307    -0.38820
O2681       O  0.07958008  0.34532499  0.33152074    -0.39530
O2682       O  0.06412771  0.35927024  0.33055999    -0.39590
C2683       C  0.14453060  0.25541687  0.35151783    -0.11880
C2684       C  0.15273257  0.24741413  0.34448081     0.05130
C2685       C  0.15775229  0.25194542  0.33272138    -0.07160
C2686       C  0.15462594  0.26436578  0.32848190    -0.07910
C2687       C  0.14653810  0.27255762  0.33557388    -0.02460
C2688       C  0.14156142  0.26791045  0.34737865     0.04360
N2689       N  0.13405614  0.27582698  0.35570958     0.66860
H2690       H  0.14083299  0.25217335  0.36069237     0.15760
H2691       H  0.15834736  0.26739203  0.31927342     0.15470
N2692       N  0.16556498  0.24394670  0.32465409     0.74570
O2693       O  0.12329441  0.27185815  0.35957957    -0.38880
O2694       O  0.13918562  0.28540712  0.36115696    -0.38820
O2695       O  0.16202175  0.23263256  0.32194353    -0.39530
O2696       O  0.17505924  0.24871906  0.31884423    -0.39590
C2697       C  0.23306896  0.17795062  0.35069535    -0.11880
C2698       C  0.22293426  0.16948730  0.35349277     0.05130
C2699       C  0.22512236  0.15603443  0.35302098    -0.07160
C2700       C  0.23747930  0.15147739  0.35034109    -0.07910
C2701       C  0.24752836  0.15997265  0.34752126    -0.02460
C2702       C  0.24534827  0.17338733  0.34774247     0.04360
N2703       N  0.25553385  0.18249337  0.34556804     0.66860
H2704       H  0.23155997  0.18825135  0.35127481     0.15760
H2705       H  0.23913219  0.14118392  0.34982668     0.15470
N2706       N  0.21486289  0.14689356  0.35439822     0.74570
O2707       O  0.25312599  0.19329245  0.34055534    -0.38880
O2708       O  0.26660273  0.18047304  0.35004958    -0.38820
O2709       O  0.20452048  0.14845437  0.34828035    -0.39530
O2710       O  0.21683424  0.13629587  0.35999593    -0.39590
C2711       C  0.12417318  0.14321352  0.41711325    -0.11880
C2712       C  0.11156815  0.14768269  0.41805000     0.05130
C2713       C  0.10804192  0.15896987  0.41137325    -0.07160
C2714       C  0.11718220  0.16531327  0.40378036    -0.07910
C2715       C  0.12991638  0.16089628  0.40274251    -0.02460
C2716       C  0.13327160  0.14951665  0.40951846     0.04360
N2717       N  0.14568676  0.14385434  0.40862777     0.66860
H2718       H  0.12693774  0.13442587  0.42202885     0.15760
H2719       H  0.11419570  0.17399485  0.39886658     0.15470
N2720       N  0.09546189  0.16446473  0.41261213     0.74570
O2721       O  0.15318125  0.14443013  0.41814227    -0.38880
O2722       O  0.14792621  0.13589081  0.39974598    -0.38820
O2723       O  0.09027514  0.16536851  0.42351882    -0.39530
O2724       O  0.09027022  0.16998750  0.40314073    -0.39590
C2725       C  0.57050235  0.48943222  0.11047494    -0.11880
C2726       C  0.57498079  0.47817106  0.10459380     0.05130
C2727       C  0.58493654  0.47888055  0.09543372    -0.07160
C2728       C  0.59027134  0.49095642  0.09255691    -0.07910
C2729       C  0.58591244  0.50221707  0.09854886    -0.02460
C2730       C  0.57590359  0.50150532  0.10768755     0.04360
N2731       N  0.57088587  0.51279252  0.11398290     0.66860
H2732       H  0.56288915  0.48874481  0.11751004     0.15760
H2733       H  0.59774959  0.49165143  0.08537984     0.15470
N2734       N  0.58946499  0.46762955  0.08871138     0.74570
O2735       O  0.55938085  0.51299025  0.11771641    -0.38880
O2736       O  0.57816502  0.52198919  0.11712307    -0.38820
O2737       O  0.58192748  0.45848548  0.08603053    -0.39530
O2738       O  0.60068284  0.46740357  0.08419203    -0.39590
C2739       C  0.59010154  0.38884082  0.16314631    -0.11880
C2740       C  0.58214443  0.38428598  0.15326864     0.05130
C2741       C  0.58161097  0.37090598  0.15076280    -0.07160
C2742       C  0.58889284  0.36246575  0.15833673    -0.07910
C2743       C  0.59705244  0.36701486  0.16810629    -0.02460
C2744       C  0.59764100  0.38044014  0.17046714     0.04360
N2745       N  0.60621088  0.38584305  0.17979707     0.66860
H2746       H  0.59062062  0.39908648  0.16509157     0.15760
H2747       H  0.58831662  0.35223962  0.15637349     0.15470
N2748       N  0.57432140  0.36575173  0.14021313     0.74570
O2749       O  0.61814372  0.38426785  0.17861980    -0.38880
O2750       O  0.60207812  0.39383637  0.18793490    -0.38820
O2751       O  0.57525351  0.37072142  0.12919217    -0.39530
O2752       O  0.56855173  0.35512332  0.14140814    -0.39590
C2753       C  0.65233469  0.35252972  0.27479535    -0.11880
C2754       C  0.66535895  0.34978126  0.27702165     0.05130
C2755       C  0.67223084  0.34298577  0.26741639    -0.07160
C2756       C  0.66592066  0.33889653  0.25623073    -0.07910
C2757       C  0.65301415  0.34186405  0.25401663    -0.02460
C2758       C  0.64619724  0.34877722  0.26342422     0.04360
N2759       N  0.63285745  0.35150165  0.26191056     0.66860
H2760       H  0.64669809  0.35745381  0.28198881     0.15760
H2761       H  0.67133705  0.33382602  0.24893876     0.15470
N2762       N  0.68571460  0.34068022  0.26843063     0.74570
O2763       O  0.62471203  0.34408843  0.26696031    -0.38880
O2764       O  0.62941818  0.36255232  0.25824829    -0.38820
O2765       O  0.69003738  0.32944922  0.26679198    -0.39530
O2766       O  0.69339866  0.35007741  0.26877890    -0.39590
C2767       C  0.64095911  0.39872094  0.38825047    -0.11880
C2768       C  0.64225454  0.41217149  0.38886266     0.05130
C2769       C  0.65093951  0.41842216  0.38049254    -0.07160
C2770       C  0.65763554  0.41109842  0.37137779    -0.07910
C2771       C  0.65617533  0.39770734  0.37068457    -0.02460
C2772       C  0.64776681  0.39135863  0.37923543     0.04360
N2773       N  0.64588158  0.37759571  0.37886127     0.66860
H2774       H  0.63422973  0.39394521  0.39457090     0.15760
H2775       H  0.66438778  0.41582341  0.36503192     0.15470
N2776       N  0.65360570  0.43197971  0.38154006     0.74570
O2777       O  0.64214012  0.37168680  0.38876638    -0.38880
O2778       O  0.64676086  0.37144518  0.36843740    -0.38820
O2779       O  0.65507367  0.43710350  0.39244916    -0.39530
O2780       O  0.65638254  0.43841947  0.37164620    -0.39590
C2781       C  0.76437967  0.34261928  0.35766933    -0.11880
C2782       C  0.76730308  0.33018204  0.35309064     0.05130
C2783       C  0.75797172  0.32372373  0.34552300    -0.07160
C2784       C  0.74648349  0.32993371  0.34237636    -0.07910
C2785       C  0.74365479  0.34231658  0.34692963    -0.02460
C2786       C  0.75275176  0.34874443  0.35470855     0.04360
N2787       N  0.75070089  0.36167275  0.35917797     0.66860
H2788       H  0.77134262  0.34794622  0.36326024     0.15760
H2789       H  0.73943502  0.32473931  0.33671709     0.15470
N2790       N  0.75954959  0.31065392  0.34145584     0.74570
O2791       O  0.75433089  0.36491130  0.37030031    -0.38880
O2792       O  0.74697626  0.37028040  0.35147813    -0.38820
O2793       O  0.76020215  0.30181640  0.34974693    -0.39530
O2794       O  0.75782459  0.30770917  0.32981017    -0.39590
C2795       C  0.97501953  0.39897987  0.41009376    -0.11880
C2796       C  0.97283482  0.40141863  0.42320638     0.05130
C2797       C  0.98274571  0.40723084  0.43053839    -0.07160
C2798       C  0.99412591  0.41105955  0.42446089    -0.07910
C2799       C  0.99622870  0.40864870  0.41138400    -0.02460
C2800       C  0.98655615  0.40248884  0.40409269     0.04360
N2801       N  0.98798427  0.40025486  0.39053156     0.66860
H2802       H  0.96750241  0.39473706  0.40428315     0.15760
H2803       H  0.00169180  0.41540911  0.43015684     0.15470
N2804       N  0.98183916  0.40858929  0.44422815     0.74570
O2805       O  0.98290803  0.39047663  0.38538449    -0.38880
O2806       O  0.99287688  0.40878282  0.38342347    -0.38820
O2807       O  0.97872400  0.39902736  0.45102885    -0.39530
O2808       O  0.98618462  0.41856469  0.44965965    -0.39590
C2809       C  0.87542991  0.35647279  0.40401471    -0.11880
C2810       C  0.87912586  0.35183585  0.41612188     0.05130
C2811       C  0.87418019  0.33996305  0.42049236    -0.07160
C2812       C  0.86570553  0.33300243  0.41267518    -0.07910
C2813       C  0.86175756  0.33776706  0.40072497    -0.02460
C2814       C  0.86676110  0.34960769  0.39621787     0.04360
N2815       N  0.86360387  0.35453044  0.38367042     0.66860
H2816       H  0.87946919  0.36544472  0.40056301     0.15760
H2817       H  0.86190965  0.32391452  0.41611181     0.15470
N2818       N  0.87799294  0.33456955  0.43257468     0.74570
O2819       O  0.86399423  0.36649566  0.38154283    -0.38880
O2820       O  0.86193668  0.34695214  0.37432128    -0.38820
O2821       O  0.87470947  0.34001528  0.44288771    -0.39530
O2822       O  0.88206466  0.32313720  0.43299599    -0.39590
C2823       C  0.31864752  0.83910655  0.23954736    -0.11880
C2824       C  0.32496832  0.84837033  0.23200891     0.05130
C2825       C  0.33611429  0.85434570  0.23707254    -0.07160
C2826       C  0.34081085  0.85059524  0.24914007    -0.07910
C2827       C  0.33439186  0.84144579  0.25669276    -0.02460
C2828       C  0.32297022  0.83585391  0.25188579     0.04360
N2829       N  0.31520778  0.82746363  0.25959070     0.66860
H2830       H  0.31004668  0.83448387  0.23598071     0.15760
H2831       H  0.34947700  0.85509927  0.25273159     0.15470
N2832       N  0.34244206  0.86468771  0.23053030     0.74570
O2833       O  0.31176108  0.83097559  0.27066899    -0.38880
O2834       O  0.31006999  0.81763092  0.25461366    -0.38820
O2835       O  0.33628574  0.87477046  0.22775944    -0.39530
O2836       O  0.35450666  0.86474172  0.22962520    -0.39590
C2837       C  0.23059556  0.82378536  0.16047650    -0.11880
C2838       C  0.22123450  0.83202062  0.15525662     0.05130
C2839       C  0.22444000  0.84514957  0.15329817    -0.07160
C2840       C  0.23684331  0.84951343  0.15623216    -0.07910
C2841       C  0.24602732  0.84130859  0.16165754    -0.02460
C2842       C  0.24289994  0.82822580  0.16370512     0.04360
N2843       N  0.25218046  0.81919757  0.16852038     0.66860
H2844       H  0.22850949  0.81365447  0.16173009     0.15760
H2845       H  0.23911316  0.85961741  0.15491881     0.15470
N2846       N  0.21510951  0.85440296  0.14919224     0.74570
O2847       O  0.24866050  0.81001633  0.17563873    -0.38880
O2848       O  0.26353989  0.81935765  0.16437099    -0.38820
O2849       O  0.20484810  0.85573710  0.15545292    -0.39530
O2850       O  0.21805555  0.86272385  0.14086720    -0.39590
C2851       C  0.40662513  0.00015510  0.10872735    -0.11880
C2852       C  0.40138123  0.99892733  0.09634749     0.05130
C2853       C  0.40196064  0.00951229  0.08781458    -0.07160
C2854       C  0.40825905  0.02081344  0.09170730    -0.07910
C2855       C  0.41356677  0.02196292  0.10402022    -0.02460
C2856       C  0.41279573  0.01152766  0.11269858     0.04360
N2857       N  0.41845658  0.01212679  0.12534088     0.66860
H2858       H  0.40632220  0.99199824  0.11520016     0.15760
H2859       H  0.40861973  0.02898521  0.08524473     0.15470
N2860       N  0.39564899  0.00924376  0.07552121     0.74570
O2861       O  0.41435039  0.00492041  0.13419036    -0.38880
O2862       O  0.42833986  0.01884770  0.12742574    -0.38820
O2863       O  0.38452201  0.00455338  0.07447977    -0.39530
O2864       O  0.40032688  0.01535281  0.06615420    -0.39590
C2865       C  0.41069781  0.91244454  0.01065335    -0.11880
C2866       C  0.40090108  0.90993349  0.00171468     0.05130
C2867       C  0.38802363  0.91224422  0.00530604    -0.07160
C2868       C  0.38534892  0.91698203  0.01764541    -0.07910
C2869       C  0.39519034  0.91987674  0.02637464    -0.02460
C2870       C  0.40806758  0.91739735  0.02291749     0.04360
N2871       N  0.41852349  0.91909411  0.03181538     0.66860
H2872       H  0.42055672  0.91044178  0.00811295     0.15760
H2873       H  0.37549114  0.91889354  0.02029813     0.15470
N2874       N  0.37760879  0.91049925  0.99644063     0.74570
O2875       O  0.42777720  0.91127167  0.03175415    -0.38880
O2876       O  0.41942075  0.92914745  0.03856444    -0.38820
O2877       O  0.36719216  0.90562825  0.00024017    -0.39530
O2878       O  0.37806892  0.91560327  0.98545145    -0.39590
C2879       C  0.34914797  0.91276041  0.13296805    -0.11880
C2880       C  0.34567621  0.91221281  0.11994786     0.05130
C2881       C  0.33516076  0.90448429  0.11622887    -0.07160
C2882       C  0.32866530  0.89719307  0.12548223    -0.07910
C2883       C  0.33212779  0.89769470  0.13852589    -0.02460
C2884       C  0.34241491  0.90577722  0.14231798     0.04360
N2885       N  0.34582763  0.90749335  0.15557692     0.66860
H2886       H  0.35711113  0.91878220  0.13593955     0.15760
H2887       H  0.32074589  0.89116414  0.12241879     0.15470
N2888       N  0.33055866  0.90438750  0.10324747     0.74570
O2889       O  0.35747784  0.90821640  0.15880706    -0.38880
O2890       O  0.33731758  0.91029925  0.16370885    -0.38820
O2891       O  0.32808435  0.89383504  0.09773844    -0.39530
O2892       O  0.32738814  0.91481293  0.09789016    -0.39590
C2893       C  0.15238649  0.34723651  0.23348016    -0.11880
C2894       C  0.16555837  0.34987713  0.23262793     0.05130
C2895       C  0.17332616  0.34865834  0.24372324    -0.07160
C2896       C  0.16782119  0.34421469  0.25517408    -0.07910
C2897       C  0.15469032  0.34151772  0.25598326    -0.02460
C2898       C  0.14682276  0.34299997  0.24500570     0.04360
N2899       N  0.13338909  0.33975516  0.24519913     0.66860
H2900       H  0.14647066  0.34797621  0.22494818     0.15760
H2901       H  0.17371780  0.34343123  0.26372251     0.15470
N2902       N  0.18655290  0.35258925  0.24377309     0.74570
O2903       O  0.12574016  0.34509418  0.23745087    -0.38880
O2904       O  0.12936750  0.33052052  0.25197183    -0.38820
O2905       O  0.18987147  0.36290680  0.23828919    -0.39530
O2906       O  0.19454763  0.34687385  0.25087318    -0.39590
C2907       C  0.07443471  0.49907058  0.09866569    -0.11880
C2908       C  0.08762958  0.49856542  0.09623168     0.05130
C2909       C  0.09522084  0.50970974  0.09803961    -0.07160
C2910       C  0.08934596  0.52109360  0.10229364    -0.07910
C2911       C  0.07611065  0.52165864  0.10466273    -0.02460
C2912       C  0.06860894  0.51038273  0.10315136     0.04360
N2913       N  0.05533449  0.50999870  0.10682976     0.66860
H2914       H  0.06873157  0.49039489  0.09762327     0.15760
H2915       H  0.09508902  0.52974366  0.10325402     0.15470
N2916       N  0.10869718  0.50984084  0.09507061     0.74570
O2917       O  0.04756292  0.50284689  0.10082867    -0.38880
O2918       O  0.05177456  0.51519801  0.11719158    -0.38820
O2919       O  0.11292732  0.50364451  0.08554330    -0.39530
O2920       O  0.11616116  0.51738375  0.10098763    -0.39590
C2921       C  0.15000027  0.40142417  0.11690505    -0.11880
C2922       C  0.14413611  0.41288698  0.12107772     0.05130
C2923       C  0.14556017  0.41653465  0.13414035    -0.07160
C2924       C  0.15316125  0.40903546  0.14236556    -0.07910
C2925       C  0.15908480  0.39773120  0.13806932    -0.02460
C2926       C  0.15728749  0.39377519  0.12522977     0.04360
N2927       N  0.16196753  0.38162926  0.12067460     0.66860
H2928       H  0.14903727  0.39829661  0.10703443     0.15760
H2929       H  0.15415353  0.41186676  0.15234500     0.15470
N2930       N  0.13878853  0.42726146  0.13949612     0.74570
O2931       O  0.15425930  0.37375082  0.11556914    -0.38880
O2932       O  0.17384427  0.37992355  0.11925692    -0.38820
O2933       O  0.12671060  0.42760492  0.13884857    -0.39530
O2934       O  0.14455166  0.43504857  0.14683360    -0.39590
C2935       C  0.33800397  0.25041256  0.17623213    -0.11880
C2936       C  0.33723058  0.25113293  0.16281064     0.05130
C2937       C  0.33992838  0.24007572  0.15537630    -0.07160
C2938       C  0.34356655  0.22866760  0.16157448    -0.07910
C2939       C  0.34465805  0.22798186  0.17500626    -0.02460
C2940       C  0.34187711  0.23907042  0.18242127     0.04360
N2941       N  0.34342719  0.23921929  0.19612096     0.66860
H2942       H  0.33595172  0.25889914  0.18194092     0.15760
H2943       H  0.34536557  0.22018208  0.15579544     0.15470
N2944       N  0.33820815  0.23991466  0.14168453     0.74570
O2945       O  0.35383198  0.23553235  0.20110512    -0.38880
O2946       O  0.33520947  0.24475188  0.20308416    -0.38820
O2947       O  0.34417602  0.24780180  0.13469202    -0.39530
O2948       O  0.33252099  0.23053715  0.13644062    -0.39590
C2949       C  0.26489885  0.33131639  0.16873136    -0.11880
C2950       C  0.26781281  0.33024373  0.15565013     0.05130
C2951       C  0.25916178  0.33512693  0.14640486    -0.07160
C2952       C  0.24778490  0.34099199  0.15056910    -0.07910
C2953       C  0.24481891  0.34208794  0.16369218    -0.02460
C2954       C  0.25369918  0.33745935  0.17289358     0.04360
N2955       N  0.25196493  0.33959879  0.18641097     0.66860
H2956       H  0.27173723  0.32790380  0.17579946     0.15760
H2957       H  0.24096866  0.34429178  0.14344404     0.15470
N2958       N  0.26144862  0.33374285  0.13283775     0.74570
O2959       O  0.25533170  0.33108677  0.19438033    -0.38880
O2960       O  0.24903875  0.35067022  0.19047416    -0.38820
O2961       O  0.26646631  0.32359870  0.12844832    -0.39530
O2962       O  0.25706310  0.34195957  0.12505721    -0.39590
C2963       C  0.48125018  0.39221573  0.08892567    -0.11880
C2964       C  0.47200619  0.40180785  0.08707655     0.05130
C2965       C  0.47499534  0.41476042  0.09000067    -0.07160
C2966       C  0.48727617  0.41777598  0.09461114    -0.07910
C2967       C  0.49660288  0.40821015  0.09642986    -0.02460
C2968       C  0.49362599  0.39527474  0.09326630     0.04360
N2969       N  0.50318306  0.38532007  0.09355458     0.66860
H2970       H  0.47901222  0.38235709  0.08630246     0.15760
H2971       H  0.48941652  0.42764877  0.09722791     0.15470
N2972       N  0.46561231  0.42485458  0.08882991     0.74570
O2973       O  0.50010474  0.37396208  0.09659656    -0.38880
O2974       O  0.51413909  0.38735796  0.08884086    -0.38820
O2975       O  0.45402703  0.42277214  0.09163506    -0.39530
O2976       O  0.46912059  0.43625121  0.08646510    -0.39590
C2977       C  0.38327707  0.34165067  0.09908011    -0.11880
C2978       C  0.37900584  0.35272299  0.09272030     0.05130
C2979       C  0.36609689  0.35643318  0.09394661    -0.07160
C2980       C  0.35768026  0.34892458  0.10124563    -0.07910
C2981       C  0.36188033  0.33778323  0.10769296    -0.02460
C2982       C  0.37498181  0.33426137  0.10667622     0.04360
N2983       N  0.38028529  0.32371772  0.11376984     0.66860
H2984       H  0.39325436  0.33885467  0.09836951     0.15760
H2985       H  0.34778139  0.35194985  0.10185933     0.15470
N2986       N  0.36157104  0.36825551  0.08859151     0.74570
O2987       O  0.38745998  0.31569372  0.10819570    -0.38880
O2988       O  0.37975751  0.32375825  0.12588111    -0.38820
O2989       O  0.35545855  0.36811273  0.07812405    -0.39530
O2990       O  0.36131640  0.37823317  0.09551779    -0.39590
C2991       C  0.42041383  0.48403253  0.59536432    -0.11880
C2992       C  0.41388313  0.47638320  0.60437245     0.05130
C2993       C  0.40248600  0.48127482  0.60991299    -0.07160
C2994       C  0.39781917  0.49333861  0.60605972    -0.07910
C2995       C  0.40447730  0.50101602  0.59720620    -0.02460
C2996       C  0.41608920  0.49634815  0.59199830     0.04360
N2997       N  0.42402673  0.50418187  0.58390041     0.66860
H2998       H  0.42918168  0.48058004  0.59104350     0.15760
H2999       H  0.38898450  0.49683047  0.61024169     0.15470
N3000       N  0.39584452  0.47455453  0.61991054     0.74570
O3001       O  0.42729993  0.51531820  0.58753602    -0.38880
O3002       O  0.42944500  0.49928132  0.57423261    -0.38820
O3003       O  0.40163424  0.47182111  0.63020938    -0.39530
O3004       O  0.38380233  0.47343491  0.61942867    -0.39590
C3005       C  0.41187220  0.37863048  0.66384234    -0.11880
C3006       C  0.40690307  0.38179363  0.65173426     0.05130
C3007       C  0.39507646  0.37646455  0.64772352    -0.07160
C3008       C  0.38837402  0.36834409  0.65614164    -0.07910
C3009       C  0.39320531  0.36537984  0.66836699    -0.02460
C3010       C  0.40513146  0.37058123  0.67229422     0.04360
N3011       N  0.41080778  0.36746363  0.68449740     0.66860
H3012       H  0.42095891  0.38271817  0.66686426     0.15760
H3013       H  0.37941240  0.36404750  0.65303632     0.15470
N3014       N  0.39004434  0.37866946  0.63502266     0.74570
O3015       O  0.42275607  0.36573764  0.68531956    -0.38880
O3016       O  0.40438457  0.36846459  0.69469553    -0.38820
O3017       O  0.39747064  0.37924753  0.62548104    -0.39530
O3018       O  0.37809907  0.37839509  0.63307521    -0.39590
C3019       C  0.31794672  0.34895394  0.76732778    -0.11880
C3020       C  0.32562694  0.34722666  0.77827548     0.05130
C3021       C  0.33837408  0.34282150  0.77684962    -0.07160
C3022       C  0.34319351  0.34065259  0.76445896    -0.07910
C3023       C  0.33548979  0.34237625  0.75356390    -0.02460
C3024       C  0.32271839  0.34666823  0.75493552     0.04360
N3025       N  0.31458581  0.34900046  0.74396219     0.66860
H3026       H  0.30825162  0.35250016  0.76843876     0.15760
H3027       H  0.35286828  0.33704762  0.76330954     0.15470
N3028       N  0.34625886  0.33976689  0.78778331     0.74570
O3029       O  0.30254781  0.34862454  0.74512678    -0.38880
O3030       O  0.31927457  0.35271797  0.73342789    -0.38820
O3031       O  0.34152439  0.33393960  0.79730004    -0.39530
O3032       O  0.35826689  0.34114857  0.78717849    -0.39590
C3033       C  0.41695034  0.49817388  0.91044022    -0.11880
C3034       C  0.40377737  0.49761364  0.91295101     0.05130
C3035       C  0.39614459  0.50871038  0.91120247    -0.07160
C3036       C  0.40199063  0.52012668  0.90693678    -0.07910
C3037       C  0.41521415  0.52075422  0.90447517    -0.02460
C3038       C  0.42273701  0.50951151  0.90594089     0.04360
N3039       N  0.43599363  0.50918287  0.90220667     0.66860
H3040       H  0.42266796  0.48952558  0.91146604     0.15760
H3041       H  0.39623342  0.52874788  0.90599694     0.15470
N3042       N  0.38264701  0.50873674  0.91413128     0.74570
O3043       O  0.44381267  0.50212988  0.90821811    -0.38880
O3044       O  0.43948433  0.51430279  0.89178773    -0.38820
O3045       O  0.37829175  0.50199240  0.92321729    -0.39530
O3046       O  0.37524325  0.51656910  0.90856929    -0.39590
C3047       C  0.40113198  0.40732091  0.98397017    -0.11880
C3048       C  0.39563528  0.41963527  0.98356500     0.05130
C3049       C  0.39410457  0.42672455  0.99506174    -0.07160
C3050       C  0.39854543  0.42143513  0.00663003    -0.07910
C3051       C  0.40412979  0.40918702  0.00700369    -0.02460
C3052       C  0.40553837  0.40198910  0.99555719     0.04360
N3053       N  0.41160738  0.38950953  0.99542881     0.66860
H3054       H  0.40240744  0.40202676  0.97508904     0.15760
H3055       H  0.39723352  0.42671032  0.01552074     0.15470
N3056       N  0.38753774  0.43891280  0.99528375     0.74570
O3057       O  0.40937639  0.38170363  0.98638423    -0.38880
O3058       O  0.42014805  0.38669506  0.00355759    -0.38820
O3059       O  0.37787087  0.44075970  0.98820896    -0.39530
O3060       O  0.39025894  0.44718083  0.00376763    -0.39590
C3061       C  0.33554272  0.41412589  0.88720830    -0.11880
C3062       C  0.34817412  0.41030364  0.88974706     0.05130
C3063       C  0.35351156  0.39984900  0.88287752    -0.07160
C3064       C  0.34595096  0.39345066  0.87370505    -0.07910
C3065       C  0.33321946  0.39708619  0.87133660    -0.02460
C3066       C  0.32798538  0.40770862  0.87803077     0.04360
N3067       N  0.31535925  0.41251164  0.87521428     0.66860
H3068       H  0.33164507  0.42238409  0.89223133     0.15760
H3069       H  0.34995340  0.38530555  0.86858843     0.15470
N3070       N  0.36658311  0.39580346  0.88472681     0.74570
O3071       O  0.30880235  0.41777226  0.88393816    -0.38880
O3072       O  0.31146814  0.41316564  0.86374262    -0.38820
O3073       O  0.37135444  0.39511948  0.89584658    -0.39530
O3074       O  0.37288685  0.39135415  0.87538749    -0.39590
C3075       C  0.33615097  0.24959545  0.67707569    -0.11880
C3076       C  0.33714917  0.24816068  0.66372760     0.05130
C3077       C  0.34226299  0.25833335  0.65632093    -0.07160
C3078       C  0.34621098  0.26969777  0.66250198    -0.07910
C3079       C  0.34517001  0.27121055  0.67588171    -0.02460
C3080       C  0.34038867  0.26082574  0.68328786     0.04360
N3081       N  0.34048564  0.26113878  0.69708219     0.66860
H3082       H  0.33260418  0.24163491  0.68278985     0.15760
H3083       H  0.34965089  0.27762283  0.65669746     0.15470
N3084       N  0.34296955  0.25757561  0.64253897     0.74570
O3085       O  0.33145762  0.25600191  0.70331100    -0.38880
O3086       O  0.35046121  0.26466075  0.70301591    -0.38820
O3087       O  0.33390208  0.25263506  0.63616189    -0.39530
O3088       O  0.35187803  0.26326200  0.63661763    -0.39590
C3089       C  0.40505082  0.07433246  0.49046006    -0.11880
C3090       C  0.39582905  0.08072037  0.48293280     0.05130
C3091       C  0.39023014  0.09211734  0.48790503    -0.07160
C3092       C  0.39430319  0.09697705  0.49980237    -0.07910
C3093       C  0.40338257  0.09047507  0.50734089    -0.02460
C3094       C  0.40857526  0.07879803  0.50267605     0.04360
N3095       N  0.41680586  0.07091044  0.51042356     0.66860
H3096       H  0.40942011  0.06554569  0.48703404     0.15760
H3097       H  0.39009396  0.10584990  0.50326632     0.15470
N3098       N  0.37996154  0.09858903  0.48145926     0.74570
O3099       O  0.41325953  0.06752317  0.52150470    -0.38880
O3100       O  0.42647552  0.06557418  0.50547285    -0.38820
O3101       O  0.36944088  0.09281829  0.47972020    -0.39530
O3102       O  0.38052554  0.11061191  0.47974097    -0.39590
C3103       C  0.36701307  0.14818877  0.58938867    -0.11880
C3104       C  0.37994837  0.14829745  0.59325594     0.05130
C3105       C  0.38342072  0.15563684  0.60422729    -0.07160
C3106       C  0.37388285  0.16187204  0.61137103    -0.07910
C3107       C  0.36098191  0.16144630  0.60764074    -0.02460
C3108       C  0.35755601  0.15476077  0.59632992     0.04360
N3109       N  0.34478013  0.15521270  0.59123680     0.66860
H3110       H  0.36408173  0.14283119  0.58095732     0.15760
H3111       H  0.37662275  0.16742192  0.61976782     0.15470
N3112       N  0.39654985  0.15757982  0.60785637     0.74570
O3113       O  0.34305968  0.15837743  0.57965733    -0.38880
O3114       O  0.33565039  0.15014195  0.59733889    -0.38820
O3115       O  0.40443519  0.16190428  0.59974819    -0.39530
O3116       O  0.39974649  0.15714999  0.61955099    -0.39590
C3117       C  0.15379386  0.83352064  0.76294852    -0.11880
C3118       C  0.15404507  0.84280065  0.75317407     0.05130
C3119       C  0.15912658  0.85511734  0.75576780    -0.07160
C3120       C  0.16400242  0.85785727  0.76799334    -0.07910
C3121       C  0.16406914  0.84846921  0.77764958    -0.02460
C3122       C  0.15867680  0.83617289  0.77524370     0.04360
N3123       N  0.15760484  0.82647244  0.78510388     0.66860
H3124       H  0.14967643  0.82413272  0.76099171     0.15760
H3125       H  0.16809224  0.86728093  0.76987580     0.15470
N3126       N  0.16002457  0.86469536  0.74593445     0.74570
O3127       O  0.14872098  0.81821356  0.78456917    -0.38880
O3128       O  0.16585020  0.82555045  0.79393402    -0.38820
O3129       O  0.15484580  0.87555734  0.74750676    -0.39530
O3130       O  0.16714080  0.86281866  0.73632739    -0.39590
C3131       C  0.07958978  0.88226682  0.66582585    -0.11880
C3132       C  0.08327593  0.88482245  0.65315163     0.05130
C3133       C  0.09343398  0.87778401  0.64755270    -0.07160
C3134       C  0.09967022  0.86837147  0.65492580    -0.07910
C3135       C  0.09615822  0.86597664  0.66769758    -0.02460
C3136       C  0.08584849  0.87286714  0.67318827     0.04360
N3137       N  0.08122256  0.87005632  0.68589586     0.66860
H3138       H  0.07154418  0.88743787  0.66989742     0.15760
H3139       H  0.10761960  0.86311644  0.65078024     0.15470
N3140       N  0.09741140  0.87980862  0.63445887     0.74570
O3141       O  0.07621260  0.87884016  0.69260220    -0.38880
O3142       O  0.08052674  0.85855453  0.68976148    -0.38820
O3143       O  0.09745885  0.89094694  0.62962741    -0.39530
O3144       O  0.10222579  0.87065167  0.62811180    -0.39590
C3145       C  0.10162078  0.07652158  0.51722637    -0.11880
C3146       C  0.09519778  0.08130837  0.52802768     0.05130
C3147       C  0.08522513  0.09038713  0.52647362    -0.07160
C3148       C  0.08185675  0.09430020  0.51401096    -0.07910
C3149       C  0.08834447  0.08959534  0.50321320    -0.02460
C3150       C  0.09831044  0.08051113  0.50477010     0.04360
N3151       N  0.10476211  0.07486557  0.49391130     0.66860
H3152       H  0.10903259  0.06933291  0.51852307     0.15760
H3153       H  0.07430475  0.10133712  0.51270513     0.15470
N3154       N  0.07836232  0.09561830  0.53728837     0.74570
O3155       O  0.11602683  0.07059919  0.49510907    -0.38880
O3156       O  0.09879098  0.07274015  0.48356134    -0.38820
O3157       O  0.08395008  0.09754148  0.54788211    -0.39530
O3158       O  0.06700429  0.09957037  0.53590871    -0.39590
C3159       C  0.08700312  0.99796877  0.60965017    -0.11880
C3160       C  0.08681751  0.00128631  0.59656102     0.05130
C3161       C  0.08060552  0.99293277  0.58775392    -0.07160
C3162       C  0.07433291  0.98190328  0.59231950    -0.07910
C3163       C  0.07457943  0.97861305  0.60537240    -0.02460
C3164       C  0.08097329  0.98677742  0.61417738     0.04360
N3165       N  0.08098289  0.98421644  0.62775124     0.66860
H3166       H  0.09147257  0.00437223  0.61654876     0.15760
H3167       H  0.06978128  0.97545971  0.58549300     0.15470
N3168       N  0.08122354  0.99497346  0.57413378     0.74570
O3169       O  0.09061317  0.98718178  0.63450519    -0.38880
O3170       O  0.07085260  0.98056507  0.63327779    -0.38820
O3171       O  0.09190486  0.99699290  0.56882281    -0.39530
O3172       O  0.07154018  0.99269804  0.56719520    -0.39590
C3173       C  0.25142522  0.15193641  0.65595680    -0.11880
C3174       C  0.24366842  0.15881013  0.66454332     0.05130
C3175       C  0.24813689  0.17070198  0.66944238    -0.07160
C3176       C  0.26045051  0.17500649  0.66618644    -0.07910
C3177       C  0.26825162  0.16820089  0.65750654    -0.02460
C3178       C  0.26343962  0.15659843  0.65214048     0.04360
N3179       N  0.27019036  0.14970420  0.64235124     0.66860
H3180       H  0.24804815  0.14290425  0.65196564     0.15760
H3181       H  0.26376472  0.18396810  0.67032920     0.15470
N3182       N  0.24010724  0.17890629  0.67708194     0.74570
O3183       O  0.27169682  0.13768335  0.64334888    -0.38880
O3184       O  0.27244055  0.15509795  0.63173055    -0.38820
O3185       O  0.24484165  0.18519788  0.68633319    -0.39530
O3186       O  0.22888333  0.18149800  0.67334722    -0.39590
C3187       C  0.14984034  0.09212981  0.64382459    -0.11880
C3188       C  0.15818904  0.10176152  0.63939633     0.05130
C3189       C  0.15921034  0.10393396  0.62602819    -0.07160
C3190       C  0.15219542  0.09620635  0.61749377    -0.07910
C3191       C  0.14375349  0.08664852  0.62190162    -0.02460
C3192       C  0.14245012  0.08471538  0.63529604     0.04360
N3193       N  0.13325421  0.07583602  0.64047049     0.66860
H3194       H  0.14886732  0.09049145  0.65405200     0.15760
H3195       H  0.15318893  0.09788275  0.60727708     0.15470
N3196       N  0.16671380  0.11433769  0.62093683     0.74570
O3197       O  0.13614237  0.06901646  0.65008071    -0.38880
O3198       O  0.12170668  0.07633039  0.63686055    -0.38820
O3199       O  0.17328437  0.11266778  0.61090595    -0.39530
O3200       O  0.16519421  0.12562380  0.62518835    -0.39590
C3201       C  0.51080450  0.08818028  0.08084708    -0.11880
C3202       C  0.51704769  0.09914478  0.08570865     0.05130
C3203       C  0.51090690  0.10640743  0.09542121    -0.07160
C3204       C  0.49906618  0.10224480  0.10027543    -0.07910
C3205       C  0.49269147  0.09140075  0.09523550    -0.02460
C3206       C  0.49865915  0.08445780  0.08517635     0.04360
N3207       N  0.49235935  0.07405583  0.07868407     0.66860
H3208       H  0.51524718  0.08250546  0.07335618     0.15760
H3209       H  0.49470808  0.10781886  0.10787960     0.15470
N3210       N  0.51607007  0.11839109  0.09997361     0.74570
O3211       O  0.48215497  0.07616494  0.07250423    -0.38880
O3212       O  0.49810981  0.06347715  0.07715493    -0.38820
O3213       O  0.51871163  0.12722166  0.09207935    -0.39530
O3214       O  0.51584133  0.12098869  0.11182026    -0.39590
C3215       C  0.65875174  0.25931778  0.16031371    -0.11880
C3216       C  0.65304079  0.24822357  0.16539430     0.05130
C3217       C  0.64367052  0.24936190  0.17511858    -0.07160
C3218       C  0.64013422  0.26170899  0.17933653    -0.07910
C3219       C  0.64569915  0.27283179  0.17412001    -0.02460
C3220       C  0.65515178  0.27167581  0.16444622     0.04360
N3221       N  0.66142900  0.28274758  0.15894561     0.66860
H3222       H  0.66588014  0.25831997  0.15282232     0.15760
H3223       H  0.63314966  0.26268686  0.18696611     0.15470
N3224       N  0.63799694  0.23820785  0.18109238     0.74570
O3225       O  0.67269189  0.28177659  0.15464288    -0.38880
O3226       O  0.65537896  0.29308158  0.15703765    -0.38820
O3227       O  0.64436755  0.22797772  0.18251486    -0.39530
O3228       O  0.62708255  0.23899261  0.18624730    -0.39590
C3229       C  0.62071738  0.15441081  0.11396697    -0.11880
C3230       C  0.62887170  0.16289031  0.10748068     0.05130
C3231       C  0.62807865  0.16397676  0.09395796    -0.07160
C3232       C  0.61908155  0.15635545  0.08731214    -0.07910
C3233       C  0.61100213  0.14766979  0.09376859    -0.02460
C3234       C  0.61191167  0.14668954  0.10730666     0.04360
N3235       N  0.60449059  0.13751763  0.11442239     0.66860
H3236       H  0.62145946  0.15353500  0.12431979     0.15760
H3237       H  0.61837276  0.15722203  0.07697041     0.15470
N3238       N  0.63614352  0.17271157  0.08682986     0.74570
O3239       O  0.60487229  0.12573153  0.11145978    -0.38880
O3240       O  0.59914771  0.14085080  0.12477135    -0.38820
O3241       O  0.64721565  0.17562772  0.09079299    -0.39530
O3242       O  0.63256364  0.17684855  0.07600151    -0.39590
C3243       C  0.82416382  0.66232503  0.75622319    -0.11880
C3244       C  0.83652726  0.65798804  0.75330914     0.05130
C3245       C  0.84292574  0.64996704  0.76220605    -0.07160
C3246       C  0.83675325  0.64647660  0.77366732    -0.07910
C3247       C  0.82429059  0.65075924  0.77664805    -0.02460
C3248       C  0.81791577  0.65866561  0.76753816     0.04360
N3249       N  0.80488386  0.66258101  0.76911279     0.66860
H3250       H  0.81898956  0.66818383  0.74934079     0.15760
H3251       H  0.84203789  0.64062946  0.78042851     0.15470
N3252       N  0.85584816  0.64571542  0.76010482     0.74570
O3253       O  0.80204724  0.67438285  0.76853092    -0.38880
O3254       O  0.79606607  0.65427036  0.76841786    -0.38820
O3255       O  0.86437651  0.65367028  0.75677657    -0.39530
O3256       O  0.85912551  0.63444832  0.76325259    -0.39590
C3257       C  0.89153745  0.63387969  0.65355736    -0.11880
C3258       C  0.89320172  0.63402646  0.66694612     0.05130
C3259       C  0.90185158  0.62525623  0.67266904    -0.07160
C3260       C  0.90850356  0.61652709  0.66487749    -0.07910
C3261       C  0.90693940  0.61652431  0.65152085    -0.02460
C3262       C  0.89830066  0.62524875  0.64570193     0.04360
N3263       N  0.89608224  0.62540347  0.63201443     0.66860
H3264       H  0.88484023  0.64053027  0.64918053     0.15760
H3265       H  0.91521700  0.60987294  0.66924450     0.15470
N3266       N  0.90446079  0.62544532  0.68621567     0.74570
O3267       O  0.88556584  0.62947982  0.62759269    -0.38880
O3268       O  0.90484144  0.62240467  0.62423046    -0.38820
O3269       O  0.90594078  0.61500539  0.69224164    -0.39530
O3270       O  0.90706507  0.63593920  0.69178223    -0.39590
C3271       C  0.84390098  0.74363754  0.65677680    -0.11880
C3272       C  0.83848580  0.75280243  0.66503063     0.05130
C3273       C  0.83590650  0.74936393  0.67785042    -0.07160
C3274       C  0.83874014  0.73692462  0.68215074    -0.07910
C3275       C  0.84411898  0.72762333  0.67393745    -0.02460
C3276       C  0.84646127  0.73104182  0.66095423     0.04360
N3277       N  0.85064719  0.72176915  0.65166345     0.66860
H3278       H  0.84556972  0.74609596  0.64680380     0.15760
H3279       H  0.83706415  0.73474226  0.69216559     0.15470
N3280       N  0.83100017  0.75857041  0.68681849     0.74570
O3281       O  0.84416915  0.71165108  0.64982407    -0.38880
O3282       O  0.85943427  0.72464614  0.64385333    -0.38820
O3283       O  0.82093595  0.75611238  0.69306083    -0.39530
O3284       O  0.83741368  0.76854492  0.68947406    -0.39590
C3285       C  0.98620967  0.91090686  0.60226798    -0.11880
C3286       C  0.99749481  0.90693955  0.59618091     0.05130
C3287       C  0.99681847  0.90012405  0.58442587    -0.07160
C3288       C  0.98472215  0.89754523  0.57905302    -0.07910
C3289       C  0.97341289  0.90135624  0.58522088    -0.02460
C3290       C  0.97412323  0.90828675  0.59690875     0.04360
N3291       N  0.96282561  0.91322917  0.60312112     0.66860
H3292       H  0.98686876  0.91641737  0.61109560     0.15760
H3293       H  0.98407670  0.89215288  0.57015538     0.15470
N3294       N  0.00815884  0.89576814  0.57782776     0.74570
O3295       O  0.96277268  0.91502779  0.61511739    -0.38880
O3296       O  0.95353583  0.91738452  0.59654021    -0.38820
O3297       O  0.01808691  0.89259723  0.58399910    -0.39530
O3298       O  0.00787785  0.89386792  0.56584915    -0.39590
C3299       C  0.88119308  0.85085252  0.60585566    -0.11880
C3300       C  0.88000835  0.85168799  0.59242979     0.05130
C3301       C  0.86970854  0.84523288  0.58628178    -0.07160
C3302       C  0.86047978  0.83890145  0.59375252    -0.07910
C3303       C  0.86164834  0.83820314  0.60712440    -0.02460
C3304       C  0.87218928  0.84414173  0.61330993     0.04360
N3305       N  0.87373087  0.84381474  0.62706783     0.66860
H3306       H  0.88895637  0.85584836  0.61066572     0.15760
H3307       H  0.85263423  0.83391089  0.58904350     0.15470
N3308       N  0.86888993  0.84426292  0.57253843     0.74570
O3309       O  0.88476726  0.84468634  0.63199859    -0.38880
O3310       O  0.86408844  0.84396638  0.63436925    -0.38820
O3311       O  0.87866669  0.84118339  0.56611065    -0.39530
O3312       O  0.85808880  0.84440305  0.56704953    -0.39590
C3313       C  0.88709005  0.41250515  0.51920698    -0.11880
C3314       C  0.89616987  0.41980451  0.52599059     0.05130
C3315       C  0.90821834  0.42223777  0.52028446    -0.07160
C3316       C  0.91074315  0.41752046  0.50791416    -0.07910
C3317       C  0.90160420  0.41035752  0.50096136    -0.02460
C3318       C  0.88951557  0.40800169  0.50673782     0.04360
N3319       N  0.87927115  0.40180777  0.49992644     0.66860
H3320       H  0.87771827  0.41085094  0.52336516     0.15760
H3321       H  0.92016184  0.41917602  0.50391966     0.15470
N3322       N  0.91821061  0.42897030  0.52704595     0.74570
O3323       O  0.87285138  0.39304183  0.50532844    -0.38880
O3324       O  0.87518714  0.40661127  0.48956623    -0.38820
O3325       O  0.92091665  0.42598245  0.53848432    -0.39530
O3326       O  0.92544656  0.43667376  0.52109890    -0.39590
C3327       C  0.89632270  0.50733618  0.60205266    -0.11880
C3328       C  0.90432280  0.49812166  0.59640771     0.05130
C3329       C  0.91715567  0.50136737  0.59376129    -0.07160
C3330       C  0.92174554  0.51366969  0.59680757    -0.07910
C3331       C  0.91376675  0.52304327  0.60238969    -0.02460
C3332       C  0.90075467  0.51981661  0.60475646     0.04360
N3333       N  0.89166347  0.52919303  0.60906587     0.66860
H3334       H  0.88633301  0.50503408  0.60374565     0.15760
H3335       H  0.93176443  0.51569946  0.59506829     0.15470
N3336       N  0.92583047  0.49209129  0.58853777     0.74570
O3337       O  0.88982462  0.53926896  0.60254445    -0.38880
O3338       O  0.88395861  0.52642021  0.61798125    -0.38820
O3339       O  0.93123505  0.49421742  0.57791615    -0.39530
O3340       O  0.92928996  0.48258813  0.59524253    -0.39590
C3341       C  0.83474005  0.41094849  0.61831039    -0.11880
C3342       C  0.84795976  0.41213870  0.62026344     0.05130
C3343       C  0.85369083  0.40629385  0.63110943    -0.07160
C3344       C  0.84590752  0.39942238  0.63972662    -0.07910
C3345       C  0.83255997  0.39844363  0.63800474    -0.02460
C3346       C  0.82694020  0.40442844  0.62712848     0.04360
N3347       N  0.81334297  0.40460392  0.62514291     0.66860
H3348       H  0.83036622  0.41554417  0.61004754     0.15760
H3349       H  0.85039208  0.39477617  0.64787285     0.15470
N3350       N  0.86731608  0.40685236  0.63339344     0.74570
O3351       O  0.80609992  0.40921826  0.63367810    -0.38880
O3352       O  0.80878576  0.40216902  0.61416041    -0.38820
O3353       O  0.87366159  0.41686957  0.63080917    -0.39530
O3354       O  0.87286179  0.39774612  0.63919096    -0.39590
C3355       C  0.84372387  0.34611975  0.74674013    -0.11880
C3356       C  0.83526910  0.34349043  0.75685871     0.05130
C3357       C  0.82191055  0.34382440  0.75459183    -0.07160
C3358       C  0.81738841  0.34655463  0.74217449    -0.07910
C3359       C  0.82582082  0.34909376  0.73197772    -0.02460
C3360       C  0.83920154  0.34863061  0.73426795     0.04360
N3361       N  0.84830312  0.34980225  0.72399080     0.66860
H3362       H  0.85396162  0.34554902  0.74842892     0.15760
H3363       H  0.80714617  0.34713855  0.74056884     0.15470
N3364       N  0.81282358  0.34198231  0.76481699     0.74570
O3365       O  0.85897025  0.35522343  0.72595270    -0.38880
O3366       O  0.84659403  0.34367475  0.71364454    -0.38820
O3367       O  0.81497268  0.34658555  0.77584423    -0.39530
O3368       O  0.80194352  0.33717976  0.76246240    -0.39590
C3369       C  0.90256348  0.48000303  0.90602221    -0.11880
C3370       C  0.91595815  0.47886879  0.90526994     0.05130
C3371       C  0.92368498  0.48970712  0.90821127    -0.07160
C3372       C  0.91784007  0.50112615  0.91240580    -0.07910
C3373       C  0.90447516  0.50221116  0.91320370    -0.02460
C3374       C  0.89670065  0.49149972  0.91002274     0.04360
N3375       N  0.88297484  0.49187648  0.91138649     0.66860
H3376       H  0.89661106  0.47168440  0.90399924     0.15760
H3377       H  0.92375623  0.50946012  0.91450881     0.15470
N3378       N  0.93732545  0.48958113  0.90628042     0.74570
O3379       O  0.87595637  0.48496470  0.90427481    -0.38880
O3380       O  0.87792142  0.49777452  0.92069401    -0.38820
O3381       O  0.94195036  0.48476775  0.89616236    -0.39530
O3382       O  0.94457169  0.49598429  0.91363185    -0.39590
C3383       C  0.90259494  0.38823484  0.84657060    -0.11880
C3384       C  0.90824334  0.38399213  0.85799752     0.05130
C3385       C  0.90709605  0.37089470  0.86146771    -0.07160
C3386       C  0.90037561  0.36241708  0.85333293    -0.07910
C3387       C  0.89457529  0.36659078  0.84180949    -0.02460
C3388       C  0.89603935  0.37975775  0.83839066     0.04360
N3389       N  0.89144154  0.38477332  0.82649048     0.66860
H3390       H  0.90366545  0.39822271  0.84370104     0.15760
H3391       H  0.89956270  0.35246839  0.85628967     0.15470
N3392       N  0.91216214  0.36612721  0.87341379     0.74570
O3393       O  0.88242655  0.39286256  0.82652804    -0.38880
O3394       O  0.89833320  0.38369199  0.81659901    -0.38820
O3395       O  0.91097947  0.37262871  0.88359546    -0.39530
O3396       O  0.91631692  0.35473530  0.87414882    -0.39590
C3397       C  0.59872909  0.41057716  0.50357315    -0.11880
C3398       C  0.58558049  0.40895329  0.50598503     0.05130
C3399       C  0.57664094  0.41304282  0.49659398    -0.07160
C3400       C  0.58107767  0.41864611  0.48517744    -0.07910
C3401       C  0.59421277  0.41993308  0.48266505    -0.02460
C3402       C  0.60321278  0.41599205  0.49206708     0.04360
N3403       N  0.61679147  0.41804726  0.49057641     0.66860
H3404       H  0.60564064  0.40773809  0.51080613     0.15760
H3405       H  0.57419206  0.42165446  0.47797008     0.15470
N3406       N  0.56311429  0.41108198  0.49814697     0.74570
O3407       O  0.62362542  0.42062199  0.50027171    -0.38880
O3408       O  0.62225925  0.41592691  0.47999752    -0.38820
O3409       O  0.55534764  0.41980440  0.49488210    -0.39530
O3410       O  0.55884962  0.40004657  0.50091851    -0.39590
C3411       C  0.50282215  0.41575788  0.59654299    -0.11880
C3412       C  0.49250349  0.40714455  0.59540668     0.05130
C3413       C  0.49434416  0.39517835  0.58915519    -0.07160
C3414       C  0.50660829  0.39197967  0.58465199    -0.07910
C3415       C  0.51690198  0.40057007  0.58588176    -0.02460
C3416       C  0.51506662  0.41261883  0.59193675     0.04360
N3417       N  0.52545840  0.42162947  0.59371856     0.66860
H3418       H  0.50140703  0.42484951  0.60145498     0.15760
H3419       H  0.50804686  0.38291982  0.57967854     0.15470
N3420       N  0.48382724  0.38654389  0.58663441     0.74570
O3421       O  0.52315420  0.43349192  0.59504333    -0.38880
O3422       O  0.53680642  0.41772143  0.59527730    -0.38820
O3423       O  0.47310303  0.39091675  0.58309219    -0.39530
O3424       O  0.48572796  0.37454870  0.58608959    -0.39590
C3425       C  0.72852481  0.33831626  0.64705684    -0.11880
C3426       C  0.72144865  0.33191917  0.65652752     0.05130
C3427       C  0.72684422  0.33037298  0.66887220    -0.07160
C3428       C  0.73922995  0.33504154  0.67135653    -0.07910
C3429       C  0.74653003  0.34127279  0.66183414    -0.02460
C3430       C  0.74101720  0.34273685  0.64943782     0.04360
N3431       N  0.74810221  0.34791426  0.63888304     0.66860
H3432       H  0.72457542  0.33929042  0.63746750     0.15760
H3433       H  0.74295981  0.33403810  0.68099934     0.15470
N3434       N  0.71972862  0.32457313  0.67914744     0.74570
O3435       O  0.75775698  0.34193406  0.63469818    -0.38880
O3436       O  0.74343056  0.35699658  0.63232934    -0.38820
O3437       O  0.72521358  0.31697263  0.68684802    -0.39530
O3438       O  0.70840069  0.32814651  0.68143720    -0.39590
C3439       C  0.62711927  0.35172520  0.60855916    -0.11880
C3440       C  0.62857071  0.33850781  0.60611923     0.05130
C3441       C  0.62100058  0.33265013  0.59650790    -0.07160
C3442       C  0.61222938  0.34005165  0.58951892    -0.07910
C3443       C  0.61079089  0.35323805  0.59195010    -0.02460
C3444       C  0.61826878  0.35921601  0.60163506     0.04360
N3445       N  0.61707799  0.37273942  0.60456567     0.66860
H3446       H  0.63288360  0.35622660  0.61598260     0.15760
H3447       H  0.60650422  0.33547504  0.58209968     0.15470
N3448       N  0.62244008  0.31931539  0.59339413     0.74570
O3449       O  0.61989713  0.37686365  0.61563318    -0.38880
O3450       O  0.61427417  0.38077106  0.59591493    -0.38820
O3451       O  0.61316529  0.31166156  0.59494236    -0.39530
O3452       O  0.63233623  0.31553870  0.58756056    -0.39590
C3453       C  0.83387162  0.25145689  0.83487513    -0.11880
C3454       C  0.83686143  0.24936905  0.84784594     0.05130
C3455       C  0.84375433  0.25891650  0.85457593    -0.07160
C3456       C  0.84735392  0.27032446  0.84834488    -0.07910
C3457       C  0.84436710  0.27250818  0.83532868    -0.02460
C3458       C  0.83776691  0.26269597  0.82847878     0.04360
N3459       N  0.83553115  0.26354990  0.81492378     0.66860
H3460       H  0.82891979  0.24402702  0.82947739     0.15760
H3461       H  0.85221646  0.27765306  0.85392833     0.15470
N3462       N  0.84656250  0.25751894  0.86794099     0.74570
O3463       O  0.84487695  0.26494883  0.80737008    -0.38880
O3464       O  0.82463986  0.26077529  0.81038517    -0.38820
O3465       O  0.85800682  0.25600981  0.87157426    -0.39530
O3466       O  0.83798495  0.25985523  0.87613974    -0.39590
C3467       C  0.86747535  0.14305640  0.91615258    -0.11880
C3468       C  0.87967040  0.14837393  0.91813671     0.05130
C3469       C  0.88228450  0.16084657  0.91342173    -0.07160
C3470       C  0.87286214  0.16739667  0.90636536    -0.07910
C3471       C  0.86065039  0.16204541  0.90408538    -0.02460
C3472       C  0.85789485  0.14977348  0.90944631     0.04360
N3473       N  0.84531222  0.14425667  0.90895124     0.66860
H3474       H  0.86525363  0.13369081  0.92018035     0.15760
H3475       H  0.87528960  0.17678091  0.90258944     0.15470
N3476       N  0.89402558  0.16743669  0.91641628     0.74570
O3477       O  0.84390490  0.13258785  0.90581829    -0.38880
O3478       O  0.83603199  0.15019969  0.91395997    -0.38820
O3479       O  0.90463888  0.16278176  0.91299612    -0.39530
O3480       O  0.89365977  0.17890067  0.92045199    -0.39590
C3481       C  0.99339405  0.08775988  0.92614971    -0.11880
C3482       C  0.99576936  0.09104325  0.91330564     0.05130
C3483       C  0.98639470  0.09805513  0.90643308    -0.07160
C3484       C  0.97491628  0.10148201  0.91255510    -0.07910
C3485       C  0.97244504  0.09811460  0.92540356    -0.02460
C3486       C  0.98205418  0.09144446  0.93236145     0.04360
N3487       N  0.98089467  0.08898265  0.94586536     0.66860
H3488       H  0.00070517  0.08277327  0.93162102     0.15760
H3489       H  0.96765735  0.10639096  0.90697466     0.15470
N3490       N  0.98801421  0.10123628  0.89310747     0.74570
O3491       O  0.98445531  0.07829870  0.95041225    -0.38880
O3492       O  0.97839571  0.09812091  0.95346239    -0.38820
O3493       O  0.99169353  0.09276712  0.88523298    -0.39530
O3494       O  0.98408123  0.11192462  0.88889086    -0.39590
C3495       C  0.08138220  0.01465793  0.89691743    -0.11880
C3496       C  0.07517947  0.02184130  0.90645196     0.05130
C3497       C  0.07386713  0.01656479  0.91885997    -0.07160
C3498       C  0.07863018  0.00421385  0.92138524    -0.07910
C3499       C  0.08473338  0.99684163  0.91183693    -0.02460
C3500       C  0.08589708  0.00217150  0.89934478     0.04360
N3501       N  0.09086542  0.99488859  0.88878827     0.66860
H3502       H  0.08214268  0.01852148  0.88727969     0.15760
H3503       H  0.07786310  0.00059813  0.93108961     0.15470
N3504       N  0.06825528  0.02379703  0.92916571     0.74570
O3505       O  0.08532071  0.98462572  0.88536226    -0.38880
O3506       O  0.09925889  0.99978628  0.88156226    -0.38820
O3507       O  0.06066990  0.01837669  0.93689869    -0.39530
O3508       O  0.07199817  0.03513949  0.93145836    -0.39590
C3509       C  0.15754796  0.14339410  0.75573421    -0.11880
C3510       C  0.15427012  0.15637580  0.75755182     0.05130
C3511       C  0.15665991  0.16531822  0.74760518    -0.07160
C3512       C  0.16238685  0.16105819  0.73620694    -0.07910
C3513       C  0.16546799  0.14805889  0.73433632    -0.02460
C3514       C  0.16316552  0.13904802  0.74427798     0.04360
N3515       N  0.16699510  0.12572623  0.74332726     0.66860
H3516       H  0.15589897  0.13657993  0.76342930     0.15760
H3517       H  0.16413181  0.16790249  0.72854623     0.15470
N3518       N  0.15285809  0.17857002  0.74863414     0.74570
O3519       O  0.16965550  0.11944083  0.75336046    -0.38880
O3520       O  0.16693949  0.11988467  0.73270079    -0.38820
O3521       O  0.15995446  0.18733768  0.74416086    -0.39530
O3522       O  0.14169768  0.18139940  0.75233898    -0.39590
C3523       C  0.10015658  0.13055985  0.85581607    -0.11880
C3524       C  0.09705127  0.13262022  0.84286356     0.05130
C3525       C  0.08656709  0.12599330  0.83741169    -0.07160
C3526       C  0.07928009  0.11763626  0.84499969    -0.07910
C3527       C  0.08244562  0.11549065  0.85790039    -0.02460
C3528       C  0.09304052  0.12198828  0.86344258     0.04360
N3529       N  0.09658247  0.12021980  0.87671655     0.66860
H3530       H  0.10817638  0.13571260  0.86001709     0.15760
H3531       H  0.07118722  0.11263854  0.84073964     0.15470
N3532       N  0.08289359  0.12800406  0.82433581     0.74570
O3533       O  0.10802882  0.12201326  0.88026336    -0.38880
O3534       O  0.08816846  0.11808214  0.88514694    -0.38820
O3535       O  0.08729145  0.12070104  0.81571784    -0.39530
O3536       O  0.07333793  0.13500970  0.82184743    -0.39590
C3537       C  0.07960636  0.40942553  0.01272617    -0.11880
C3538       C  0.08871830  0.40979640  0.00282768     0.05130
C3539       C  0.10108217  0.41483277  0.00538464    -0.07160
C3540       C  0.10409959  0.41895021  0.01787612    -0.07910
C3541       C  0.09495373  0.41861526  0.02769517    -0.02460
C3542       C  0.08255942  0.41371567  0.02517754     0.04360
N3543       N  0.07301767  0.41271038  0.03512623     0.66860
H3544       H  0.07021397  0.40537881  0.01083121     0.15760
H3545       H  0.11347178  0.42303793  0.01982424     0.15470
N3546       N  0.11036324  0.41660835  0.99534487     0.74570
O3547       O  0.06125364  0.41266142  0.03225636    -0.38880
O3548       O  0.07624225  0.41051094  0.04661068    -0.38820
O3549       O  0.10697028  0.42119506  0.98463955    -0.39530
O3550       O  0.12217034  0.41547804  0.99776485    -0.39590
C3551       C  0.01375284  0.41224277  0.92746524    -0.11880
C3552       C  0.01812076  0.39969343  0.92512468     0.05130
C3553       C  0.01074610  0.39150495  0.91715675    -0.07160
C3554       C  0.99921926  0.39604851  0.91187025    -0.07910
C3555       C  0.99472899  0.40861998  0.91424143    -0.02460
C3556       C  0.00239829  0.41688901  0.92194192     0.04360
N3557       N  0.99932248  0.43020593  0.92373806     0.66860
H3558       H  0.01952979  0.41875534  0.93321205     0.15760
H3559       H  0.99354469  0.38940699  0.90621867     0.15470
N3560       N  0.01441395  0.37838868  0.91479035     0.74570
O3561       O  0.99966663  0.43505012  0.93486209    -0.38880
O3562       O  0.99861916  0.43756694  0.91412064    -0.38820
O3563       O  0.01752148  0.37115727  0.92402201    -0.39530
O3564       O  0.01283904  0.37352534  0.90377792    -0.39590
C3565       C  0.14063139  0.24810634  0.84351994    -0.11880
C3566       C  0.15331253  0.24993779  0.84771741     0.05130
C3567       C  0.16223561  0.23977184  0.84636526    -0.07160
C3568       C  0.15840709  0.22835303  0.84025263    -0.07910
C3569       C  0.14578604  0.22660454  0.83599004    -0.02460
C3570       C  0.13672249  0.23657379  0.83761824     0.04360
N3571       N  0.12375475  0.23540566  0.83294249     0.66860
H3572       H  0.13382705  0.25592651  0.84437845     0.15760
H3573       H  0.16519799  0.22052196  0.83928436     0.15470
N3574       N  0.17491697  0.24054644  0.85174879     0.74570
O3575       O  0.11488938  0.24189561  0.83803790    -0.38880
O3576       O  0.12131495  0.22905000  0.82288320    -0.38820
O3577       O  0.17654730  0.24497033  0.86293587    -0.39530
O3578       O  0.18416886  0.23504272  0.84621213    -0.39590
C3579       C  0.24542673  0.33639097  0.86054077    -0.11880
C3580       C  0.24672430  0.34047018  0.84775637     0.05130
C3581       C  0.23648531  0.33841775  0.83906977    -0.07160
C3582       C  0.22529645  0.33232261  0.84338231    -0.07910
C3583       C  0.22390961  0.32850767  0.85621685    -0.02460
C3584       C  0.23419410  0.33036647  0.86495090     0.04360
N3585       N  0.23383541  0.32567621  0.87800002     0.66860
H3586       H  0.25335812  0.33773552  0.86713957     0.15760
H3587       H  0.21740107  0.33091143  0.83673689     0.15470
N3588       N  0.23700012  0.34294904  0.82605461     0.74570
O3589       O  0.24413089  0.32283617  0.88372603    -0.38880
O3590       O  0.22346593  0.32500115  0.88416312    -0.38820
O3591       O  0.23248174  0.33612849  0.81707204    -0.39530
O3592       O  0.24032981  0.35440448  0.82372314    -0.39590
C3593       C  0.11955783  0.33114811  0.90860402    -0.11880
C3594       C  0.12963742  0.33768913  0.90244507     0.05130
C3595       C  0.13071315  0.35120388  0.90404893    -0.07160
C3596       C  0.12211609  0.35763821  0.91214240    -0.07910
C3597       C  0.11205500  0.35108536  0.91815252    -0.02460
C3598       C  0.11069088  0.33765670  0.91639857     0.04360
N3599       N  0.10063996  0.33044614  0.92261056     0.66860
H3600       H  0.11874654  0.32079868  0.90761915     0.15760
H3601       H  0.12287700  0.36799768  0.91323656     0.15470
N3602       N  0.13981377  0.35869675  0.89691528     0.74570
O3603       O  0.09676442  0.31995437  0.91782792    -0.38880
O3604       O  0.09641558  0.33384255  0.93344890    -0.38820
O3605       O  0.14051912  0.35743052  0.88487569    -0.39530
O3606       O  0.14551847  0.36802463  0.90223054    -0.39590
C3607       C  0.75199896  0.84820237  0.65408041    -0.11880
C3608       C  0.74356009  0.84073834  0.66144213     0.05130
C3609       C  0.74739812  0.82830274  0.66537753    -0.07160
C3610       C  0.75958831  0.82376039  0.66196722    -0.07910
C3611       C  0.76818749  0.83126595  0.65472606    -0.02460
C3612       C  0.76430763  0.84379114  0.65093958     0.04360
N3613       N  0.77289699  0.85252979  0.64467413     0.66860
H3614       H  0.74925829  0.85787536  0.65130898     0.15760
H3615       H  0.76214311  0.81405381  0.66471935     0.15470
N3616       N  0.73892012  0.81992657  0.67233891     0.74570
O3617       O  0.76906911  0.85899489  0.63514917    -0.38880
O3618       O  0.78335942  0.85552671  0.65001582    -0.38820
O3619       O  0.72742882  0.81855697  0.66876316    -0.39530
O3620       O  0.74330739  0.81261745  0.68097355    -0.39590
C3621       C  0.65132348  0.91844874  0.62885205    -0.11880
C3622       C  0.64309533  0.91193130  0.62033315     0.05130
C3623       C  0.64231997  0.89833511  0.62092536    -0.07160
C3624       C  0.64983275  0.89166287  0.62989426    -0.07910
C3625       C  0.65792063  0.89819821  0.63845223    -0.02460
C3626       C  0.65877445  0.91179527  0.63795342     0.04360
N3627       N  0.66708826  0.91899868  0.64643174     0.66860
H3628       H  0.65196914  0.92885133  0.62837924     0.15760
H3629       H  0.64915168  0.88125472  0.63040046     0.15470
N3630       N  0.63357284  0.89117699  0.61298972     0.74570
O3631       O  0.67093219  0.93008838  0.64326895    -0.38880
O3632       O  0.66990074  0.91481379  0.65745901    -0.38820
O3633       O  0.63699074  0.88056663  0.60816397    -0.39530
O3634       O  0.62193168  0.89441919  0.61237826    -0.39590
C3635       C  0.63586426  0.76434748  0.83905566    -0.11880
C3636       C  0.64568047  0.77270697  0.83517076     0.05130
C3637       C  0.65856479  0.76859704  0.83600414    -0.07160
C3638       C  0.66124887  0.75616298  0.84055071    -0.07910
C3639       C  0.65144025  0.74768297  0.84432935    -0.02460
C3640       C  0.63853266  0.75179711  0.84331292     0.04360
N3641       N  0.62801482  0.74318324  0.84566359     0.66860
H3642       H  0.62597160  0.76736881  0.83807990     0.15760
H3643       H  0.67116552  0.75326165  0.84152716     0.15470
N3644       N  0.66904119  0.77702640  0.83279799     0.74570
O3645       O  0.61794122  0.74730827  0.85094525    -0.38880
O3646       O  0.62791507  0.73213315  0.84058896    -0.38820
O3647       O  0.66875022  0.78875652  0.83599181    -0.39530
O3648       O  0.67926610  0.77245554  0.82821580    -0.39590
C3649       C  0.66599652  0.83771564  0.75289701    -0.11880
C3650       C  0.65371992  0.84225373  0.75590128     0.05130
C3651       C  0.64733424  0.85021839  0.74695499    -0.07160
C3652       C  0.65352240  0.85372485  0.73550711    -0.07910
C3653       C  0.66579494  0.84904777  0.73232445    -0.02460
C3654       C  0.67198218  0.84080918  0.74126746     0.04360
N3655       N  0.68413761  0.83506130  0.73868941     0.66860
H3656       H  0.67104118  0.83157610  0.75962606     0.15760
H3657       H  0.64842388  0.85995167  0.72894439     0.15470
N3658       N  0.63433994  0.85425818  0.74894159     0.74570
O3659       O  0.69352742  0.83744577  0.74598393    -0.38880
O3660       O  0.68481161  0.82575170  0.73091619    -0.38820
O3661       O  0.63103551  0.86563706  0.74626816    -0.39530
O3662       O  0.62580689  0.84602970  0.75152573    -0.39590
C3663       C  0.49477048  0.89778103  0.92046905    -0.11880
C3664       C  0.49519580  0.90818177  0.91188630     0.05130
C3665       C  0.48387298  0.91517138  0.90923917    -0.07160
C3666       C  0.47248267  0.91173262  0.91553057    -0.07910
C3667       C  0.47209419  0.90145820  0.92423533    -0.02460
C3668       C  0.48337973  0.89435100  0.92682814     0.04360
N3669       N  0.48353238  0.88373413  0.93577034     0.66860
H3670       H  0.50351879  0.89255326  0.92252031     0.15760
H3671       H  0.46372280  0.91690857  0.91338569     0.15470
N3672       N  0.48360908  0.92534545  0.89984872     0.74570
O3673       O  0.49216033  0.87524983  0.93504518    -0.38880
O3674       O  0.47582608  0.88332776  0.94508803    -0.38820
O3675       O  0.49017392  0.92449888  0.88971110    -0.39530
O3676       O  0.47559316  0.93438644  0.90085442    -0.39590
C3677       C  0.58122316  0.88410362  0.84400527    -0.11880
C3678       C  0.58222775  0.88357038  0.85741063     0.05130
C3679       C  0.59027649  0.87427489  0.86319439    -0.07160
C3680       C  0.59702264  0.86565873  0.85528684    -0.07910
C3681       C  0.59590330  0.86601846  0.84183496    -0.02460
C3682       C  0.58783880  0.87537619  0.83614703     0.04360
N3683       N  0.58577382  0.87582578  0.82252532     0.66860
H3684       H  0.57497740  0.89119305  0.83962455     0.15760
H3685       H  0.60327008  0.85861003  0.85970209     0.15470
N3686       N  0.59189759  0.87350392  0.87693639     0.74570
O3687       O  0.58241882  0.86578635  0.81654111    -0.38880
O3688       O  0.58553525  0.88653130  0.81679162    -0.38820
O3689       O  0.58283886  0.87629833  0.88444745    -0.39530
O3690       O  0.60213589  0.86903247  0.88162308    -0.39590
C3691       C  0.58366679  0.51713962  0.39841487    -0.11880
C3692       C  0.57346636  0.52210323  0.40566426     0.05130
C3693       C  0.56904004  0.51501012  0.41638376    -0.07160
C3694       C  0.57446301  0.50298031  0.41914080    -0.07910
C3695       C  0.58471628  0.49803757  0.41194470    -0.02460
C3696       C  0.58954981  0.50542596  0.40159721     0.04360
N3697       N  0.60080145  0.50164256  0.39465935     0.66860
H3698       H  0.58731270  0.52253027  0.39030564     0.15760
H3699       H  0.57073946  0.49757525  0.42720085     0.15470
N3700       N  0.55962254  0.52010713  0.42502570     0.74570
O3701       O  0.60119877  0.50293713  0.38261044    -0.38880
O3702       O  0.61101331  0.49914755  0.40068234    -0.38820
O3703       O  0.55091628  0.51287655  0.42937341    -0.39530
O3704       O  0.56125400  0.53109491  0.42997772    -0.39590
C3705       C  0.66599469  0.65969197  0.25509496    -0.11880
C3706       C  0.65290059  0.65734803  0.25698644     0.05130
C3707       C  0.64584571  0.65082546  0.24736748    -0.07160
C3708       C  0.65207404  0.64694951  0.23607317    -0.07910
C3709       C  0.66520025  0.64933618  0.23408961    -0.02460
C3710       C  0.67230467  0.65547448  0.24397782     0.04360
N3711       N  0.68598288  0.65679895  0.24334004     0.66860
H3712       H  0.67152180  0.66428961  0.26264655     0.15760
H3713       H  0.64641936  0.64245582  0.22857829     0.15470
N3714       N  0.63230042  0.64856345  0.24858704     0.74570
O3715       O  0.69130686  0.66695807  0.24737941    -0.38880
O3716       O  0.69283106  0.64711662  0.24079120    -0.38820
O3717       O  0.62502642  0.65732696  0.25274136    -0.39530
O3718       O  0.62737017  0.63843980  0.24399236    -0.39590
C3719       C  0.58776061  0.62581861  0.33661259    -0.11880
C3720       C  0.59661699  0.63358384  0.34325406     0.05130
C3721       C  0.59772155  0.63232816  0.35674411    -0.07160
C3722       C  0.58993039  0.62345870  0.36319655    -0.07910
C3723       C  0.58122840  0.61564550  0.35653120    -0.02460
C3724       C  0.58003602  0.61679564  0.34304588     0.04360
N3725       N  0.57118282  0.60898042  0.33574002     0.66860
H3726       H  0.58686272  0.62679363  0.32629240     0.15760
H3727       H  0.59087250  0.62242709  0.37351827     0.15470
N3728       N  0.60706290  0.63945993  0.36398588     0.74570
O3729       O  0.56714750  0.61282197  0.32496297    -0.38880
O3730       O  0.56811863  0.59782597  0.33945471    -0.38820
O3731       O  0.60410994  0.64418070  0.37475873    -0.39530
O3732       O  0.61867217  0.63939282  0.36059803    -0.39590
C3733       C  0.65463558  0.72752291  0.34527566    -0.11880
C3734       C  0.64503820  0.72747926  0.33585425     0.05130
C3735       C  0.63944153  0.73921538  0.33189057    -0.07160
C3736       C  0.64386935  0.75076950  0.33738032    -0.07910
C3737       C  0.65365784  0.75086065  0.34663985    -0.02460
C3738       C  0.65914153  0.73906520  0.35070874     0.04360
N3739       N  0.66890333  0.73846561  0.36051576     0.66860
H3740       H  0.65884803  0.71845289  0.34821766     0.15760
H3741       H  0.63955462  0.75981659  0.33452341     0.15470
N3742       N  0.62916250  0.73960241  0.32261071     0.74570
O3743       O  0.66977928  0.72863206  0.36758847    -0.38880
O3744       O  0.67753309  0.74695451  0.36125519    -0.38820
O3745       O  0.62126660  0.73041837  0.32170023    -0.39530
O3746       O  0.62716549  0.74969813  0.31616209    -0.39590
C3747       C  0.51675871  0.90314594  0.41113775    -0.11880
C3748       C  0.51742478  0.90033204  0.42431581     0.05130
C3749       C  0.50618176  0.90125494  0.43181513    -0.07160
C3750       C  0.49466582  0.90505538  0.42600655    -0.07910
C3751       C  0.49398055  0.90765476  0.41282215    -0.02460
C3752       C  0.50520438  0.90685212  0.40522589     0.04360
N3753       N  0.50530262  0.91024495  0.39177727     0.66860
H3754       H  0.52539645  0.90263193  0.40541178     0.15760
H3755       H  0.48605214  0.90565734  0.43178181     0.15470
N3756       N  0.50611057  0.89783821  0.44516161     0.74570
O3757       O  0.51556557  0.91397145  0.38654453    -0.38880
O3758       O  0.49543851  0.90894609  0.38486604    -0.38820
O3759       O  0.50029280  0.90483481  0.45316986    -0.39530
O3760       O  0.51035909  0.88702577  0.44869437    -0.39590
C3761       C  0.58691272  0.92156689  0.50421920    -0.11880
C3762       C  0.58787745  0.90816508  0.50292655     0.05130
C3763       C  0.59227702  0.90081466  0.51342998    -0.07160
C3764       C  0.59573966  0.90702341  0.52488814    -0.07910
C3765       C  0.59514442  0.92050012  0.52613828    -0.02460
C3766       C  0.59071511  0.92784711  0.51555141     0.04360
N3767       N  0.59053986  0.94165298  0.51583047     0.66860
H3768       H  0.58358753  0.92726163  0.49615498     0.15760
H3769       H  0.59878610  0.90116565  0.53292948     0.15470
N3770       N  0.59253672  0.88702442  0.51296378     0.74570
O3771       O  0.60067737  0.94781463  0.51835715    -0.38880
O3772       O  0.58090922  0.94766325  0.51159630    -0.38820
O3773       O  0.60078694  0.88138165  0.50615205    -0.39530
O3774       O  0.58654244  0.88064593  0.52134212    -0.39590
C3775       C  0.61650138  0.85742213  0.40558160    -0.11880
C3776       C  0.61082342  0.85172162  0.41635519     0.05130
C3777       C  0.61433027  0.83905538  0.41994081    -0.07160
C3778       C  0.62358414  0.83250458  0.41262067    -0.07910
C3779       C  0.62945287  0.83832103  0.40198367    -0.02460
C3780       C  0.62588215  0.85094550  0.39848559     0.04360
N3781       N  0.63128853  0.85716187  0.38749282     0.66860
H3782       H  0.61381411  0.86711461  0.40281364     0.15760
H3783       H  0.62617528  0.82272902  0.41516199     0.15470
N3784       N  0.60839943  0.83257740  0.43063362     0.74570
O3785       O  0.62406705  0.86031595  0.37828455    -0.38880
O3786       O  0.64227697  0.86218521  0.38831873    -0.38820
O3787       O  0.59682968  0.83468752  0.43345515    -0.39530
O3788       O  0.61429071  0.82370336  0.43644790    -0.39590
C3789       C  0.74377880  0.17265050  0.85196021    -0.11880
C3790       C  0.74305285  0.15974242  0.84810683     0.05130
C3791       C  0.75421044  0.15203493  0.84822295    -0.07160
C3792       C  0.76585553  0.15755008  0.85225016    -0.07910
C3793       C  0.76664795  0.17051999  0.85603489    -0.02460
C3794       C  0.75536792  0.17808776  0.85619346     0.04360
N3795       N  0.75531203  0.19097105  0.86128517     0.66860
H3796       H  0.73510800  0.17838444  0.85217434     0.15760
H3797       H  0.77449539  0.15178813  0.85195599     0.15470
N3798       N  0.75403524  0.13883377  0.84390839     0.74570
O3799       O  0.74774596  0.19928352  0.85673041    -0.38880
O3800       O  0.76129353  0.19350675  0.87153784    -0.38820
O3801       O  0.74651459  0.13527627  0.83507119    -0.39530
O3802       O  0.76235640  0.13099291  0.84794489    -0.39590
C3803       C  0.59092842  0.99094202  0.91530010    -0.11880
C3804       C  0.58465027  0.00219889  0.91137584     0.05130
C3805       C  0.57291666  0.00130438  0.90458669    -0.07160
C3806       C  0.56776132  0.98905179  0.90201013    -0.07910
C3807       C  0.57410684  0.97777255  0.90579649    -0.02460
C3808       C  0.58578014  0.97869986  0.91268325     0.04360
N3809       N  0.59217385  0.96745737  0.91762304     0.66860
H3810       H  0.59973890  0.99173686  0.92078208     0.15760
H3811       H  0.55887239  0.98826846  0.89666037     0.15470
N3812       N  0.56609406  0.01258340  0.90028788     0.74570
O3813       O  0.60418324  0.96750520  0.91914162    -0.38880
O3814       O  0.58576716  0.95815379  0.92206678    -0.38820
O3815       O  0.57204656  0.02265937  0.89705993    -0.39530
O3816       O  0.55412980  0.01209672  0.89849581    -0.39590
C3817       C  0.59921785  0.09122744  0.00307574    -0.11880
C3818       C  0.58617665  0.09155958  0.00646773     0.05130
C3819       C  0.57709695  0.08599060  0.99794348    -0.07160
C3820       C  0.58132321  0.07977727  0.98675471    -0.07910
C3821       C  0.59432361  0.07951028  0.98341174    -0.02460
C3822       C  0.60340749  0.08531507  0.99169579     0.04360
N3823       N  0.61692114  0.08483359  0.98905047     0.66860
H3824       H  0.60634044  0.09519693  0.00953685     0.15760
H3825       H  0.57428787  0.07569739  0.98023677     0.15470
N3826       N  0.56355655  0.08722691  0.99996560     0.74570
O3827       O  0.62406920  0.09413379  0.99223168    -0.38880
O3828       O  0.62198761  0.07455033  0.98505886    -0.38820
O3829       O  0.55873324  0.09821531  0.00182210    -0.39530
O3830       O  0.55622180  0.07779079  0.99776819    -0.39590
C3831       C  0.64898845  0.08172486  0.87988591    -0.11880
C3832       C  0.64229661  0.08844157  0.88949654     0.05130
C3833       C  0.64337948  0.10203497  0.89001717    -0.07160
C3834       C  0.65120173  0.10843612  0.88112559    -0.07910
C3835       C  0.65762267  0.10171492  0.87141541    -0.02460
C3836       C  0.65657041  0.08813565  0.87074245     0.04360
N3837       N  0.66325620  0.08064631  0.86117912     0.66860
H3838       H  0.64832782  0.07132635  0.87949041     0.15760
H3839       H  0.65192529  0.11884899  0.88150309     0.15470
N3840       N  0.63612959  0.10958525  0.89896686     0.74570
O3841       O  0.66584559  0.06895935  0.86328534    -0.38880
O3842       O  0.66580098  0.08527237  0.85027603    -0.38820
O3843       O  0.64134817  0.11897337  0.90466393    -0.39530
O3844       O  0.62412036  0.10823909  0.89959536    -0.39590
C3845       C  0.22739652  0.66153738  0.64682752    -0.11880
C3846       C  0.22204493  0.67069456  0.65514216     0.05130
C3847       C  0.22882973  0.67413381  0.66641339    -0.07160
C3848       C  0.24079388  0.66850310  0.66891867    -0.07910
C3849       C  0.24607153  0.65908311  0.66076785    -0.02460
C3850       C  0.23917140  0.65565240  0.64953611     0.04360
N3851       N  0.24364932  0.64593402  0.64092839     0.66860
H3852       H  0.22234352  0.65881648  0.63812959     0.15760
H3853       H  0.24583649  0.67138875  0.67754363     0.15470
N3854       N  0.22348451  0.68273166  0.67578801     0.74570
O3855       O  0.24277491  0.63422445  0.64404820    -0.38880
O3856       O  0.24634564  0.64886465  0.62948497    -0.38820
O3857       O  0.21227169  0.68087570  0.67993384    -0.39530
O3858       O  0.23058070  0.69084658  0.68139659    -0.39590
C3859       C  0.14309762  0.74961048  0.67204649    -0.11880
C3860       C  0.15266356  0.74984952  0.66262413     0.05130
C3861       C  0.15852024  0.76163631  0.65923530    -0.07160
C3862       C  0.15475758  0.77290712  0.66562443    -0.07910
C3863       C  0.14532510  0.77266247  0.67518185    -0.02460
C3864       C  0.13936732  0.76086877  0.67852422     0.04360
N3865       N  0.12946911  0.76008110  0.68816431     0.66860
H3866       H  0.13873318  0.74048033  0.67457262     0.15760
H3867       H  0.15905093  0.78203705  0.66297492     0.15470
N3868       N  0.16790899  0.76243230  0.64912948     0.74570
O3869       O  0.12153431  0.75088559  0.68797216    -0.38880
O3870       O  0.12921097  0.76782095  0.69751009    -0.38820
O3871       O  0.16718160  0.75515037  0.63943464    -0.39530
O3872       O  0.17610814  0.77138979  0.64915318    -0.39590
C3873       C  0.01222174  0.60683746  0.59438267    -0.11880
C3874       C  0.01647796  0.60068746  0.58314800     0.05130
C3875       C  0.00893027  0.59061138  0.57791704    -0.07160
C3876       C  0.99717152  0.58746348  0.58361767    -0.07910
C3877       C  0.99294085  0.59357097  0.59488397    -0.02460
C3878       C  0.00081128  0.60318783  0.60049023     0.04360
N3879       N  0.99782334  0.60887716  0.61268133     0.66860
H3880       H  0.01793384  0.61442700  0.59866903     0.15760
H3881       H  0.99141358  0.57995496  0.57925716     0.15470
N3882       N  0.01328587  0.58295677  0.56731843     0.74570
O3883       O  0.99587693  0.60175899  0.62230756    -0.38880
O3884       O  0.99925585  0.62084134  0.61434096    -0.38820
O3885       O  0.02400269  0.57736364  0.56796619    -0.39530
O3886       O  0.00560787  0.57995603  0.55841223    -0.39590
C3887       C  0.10643077  0.65862349  0.59907028    -0.11880
C3888       C  0.11099006  0.64797554  0.59217522     0.05130
C3889       C  0.12421513  0.64518000  0.59244591    -0.07160
C3890       C  0.13254716  0.65306741  0.59951109    -0.07910
C3891       C  0.12799671  0.66355111  0.60673519    -0.02460
C3892       C  0.11469537  0.66634218  0.60643524     0.04360
N3893       N  0.10923805  0.67650634  0.61395844     0.66860
H3894       H  0.09628781  0.66084969  0.59892805     0.15760
H3895       H  0.14266071  0.65075470  0.59953149     0.15470
N3896       N  0.12926145  0.63395976  0.58625040     0.74570
O3897       O  0.10144137  0.68426365  0.60885241    -0.38880
O3898       O  0.11041950  0.67637734  0.62602581    -0.38820
O3899       O  0.13884019  0.63491976  0.57893018    -0.39530
O3900       O  0.12523383  0.62293121  0.58937772    -0.39590
C3901       C  0.49434839  0.10530356  0.59484444    -0.11880
C3902       C  0.49707770  0.09218746  0.59678066     0.05130
C3903       C  0.48780160  0.08286727  0.59319868    -0.07160
C3904       C  0.47645321  0.08685916  0.58717794    -0.07910
C3905       C  0.47380332  0.09992978  0.58524401    -0.02460
C3906       C  0.48282673  0.10932384  0.58912861     0.04360
N3907       N  0.48073215  0.12285617  0.58691810     0.66860
H3908       H  0.50144773  0.11249655  0.59736544     0.15760
H3909       H  0.46932120  0.07972553  0.58452744     0.15470
N3910       N  0.48931165  0.06947279  0.59629248     0.74570
O3911       O  0.48582521  0.13112113  0.59423472    -0.38880
O3912       O  0.47503446  0.12665334  0.57690758    -0.38820
O3913       O  0.49269442  0.06619676  0.60747059    -0.39530
O3914       O  0.48529282  0.06093792  0.58862485    -0.39590
C3915       C  0.56789247  0.01252637  0.60202140    -0.11880
C3916       C  0.57639234  0.02281586  0.60410722     0.05130
C3917       C  0.58973429  0.02062063  0.60309242    -0.07160
C3918       C  0.59416454  0.00823618  0.60002397    -0.07910
C3919       C  0.58562979  0.99807953  0.59756042    -0.02460
C3920       C  0.57227797  0.00017537  0.59877208     0.04360
N3921       N  0.56305850  0.98990028  0.59751969     0.66860
H3922       H  0.55768068  0.01408500  0.60304153     0.15760
H3923       H  0.60438083  0.00661464  0.59907750     0.15470
N3924       N  0.59887732  0.03088630  0.60447291     0.74570
O3925       O  0.55316608  0.98984038  0.60448362    -0.38880
O3926       O  0.56389946  0.98174378  0.58858187    -0.38820
O3927       O  0.60938570  0.02888962  0.61016120    -0.39530
O3928       O  0.59733135  0.04130577  0.59842885    -0.39590
C3929       C  0.64470625  0.22990967  0.66177381    -0.11880
C3930       C  0.64525386  0.22888121  0.67521412     0.05130
C3931       C  0.64942910  0.23963279  0.68248100    -0.07160
C3932       C  0.65299646  0.25099381  0.67613393    -0.07910
C3933       C  0.65217859  0.25209049  0.66273301    -0.02460
C3934       C  0.64811861  0.24132606  0.65540352     0.04360
N3935       N  0.64822750  0.24137620  0.64158075     0.66860
H3936       H  0.64179291  0.22164948  0.65610521     0.15760
H3937       H  0.65609370  0.25922449  0.68176395     0.15470
N3938       N  0.64960949  0.23944210  0.69626588     0.74570
O3939       O  0.65173045  0.23143294  0.63555089    -0.38880
O3940       O  0.64315094  0.25046395  0.63537812    -0.38820
O3941       O  0.65880508  0.24456889  0.70230414    -0.39530
O3942       O  0.63980402  0.23587107  0.70239560    -0.39590
C3943       C  0.65496605  0.14584770  0.75770432    -0.11880
C3944       C  0.65397702  0.15897572  0.75453010     0.05130
C3945       C  0.65821134  0.16828114  0.76356102    -0.07160
C3946       C  0.66397636  0.16422211  0.77503999    -0.07910
C3947       C  0.66502839  0.15112882  0.77811787    -0.02460
C3948       C  0.66040926  0.14179179  0.76936186     0.04360
N3949       N  0.66169088  0.12821669  0.77180354     0.66860
H3950       H  0.65195207  0.13860230  0.75084554     0.15760
H3951       H  0.66712461  0.17139408  0.78193710     0.15470
N3952       N  0.65605133  0.18180309  0.76168418     0.74570
O3953       O  0.65331197  0.12044495  0.76768722    -0.38880
O3954       O  0.67191166  0.12379292  0.77656594    -0.38820
O3955       O  0.64502903  0.18577777  0.75863144    -0.39530
O3956       O  0.66446250  0.18986960  0.76510578    -0.39590
C3957       C  0.59392325  0.13770170  0.65553999    -0.11880
C3958       C  0.59665883  0.13479968  0.66847101     0.05130
C3959       C  0.59241403  0.12281757  0.67346467    -0.07160
C3960       C  0.58634862  0.11392253  0.66532195    -0.07910
C3961       C  0.58362606  0.11692408  0.65250979    -0.02460
C3962       C  0.58737223  0.12899908  0.64752910     0.04360
N3963       N  0.58500235  0.13244942  0.63434067     0.66860
H3964       H  0.59720284  0.14668155  0.65143784     0.15760
H3965       H  0.58307166  0.10482113  0.66922719     0.15470
N3966       N  0.59330401  0.11980711  0.68687395     0.74570
O3967       O  0.58334329  0.14409961  0.63130046    -0.38880
O3968       O  0.58586338  0.12412997  0.62553362    -0.38820
O3969       O  0.58858338  0.12741341  0.69505794    -0.39530
O3970       O  0.59663352  0.10866056  0.69037073    -0.39590
C3971       C  0.06952381  0.48554313  0.41414963    -0.11880
C3972       C  0.07580204  0.47802262  0.40483953     0.05130
C3973       C  0.08709090  0.48302264  0.39913460    -0.07160
C3974       C  0.09195962  0.49494286  0.40318781    -0.07910
C3975       C  0.08558331  0.50246471  0.41236200    -0.02460
C3976       C  0.07401890  0.49778757  0.41767671     0.04360
N3977       N  0.06629160  0.50555988  0.42603061     0.66860
H3978       H  0.06081591  0.48207439  0.41857894     0.15760
H3979       H  0.10074214  0.49844835  0.39889340     0.15470
N3980       N  0.09343167  0.47658953  0.38877096     0.74570
O3981       O  0.06323150  0.51683746  0.42270833    -0.38880
O3982       O  0.06079639  0.50051512  0.43557841    -0.38820
O3983       O  0.08751863  0.47467991  0.37834906    -0.39530
O3984       O  0.10542929  0.47506014  0.38912342    -0.39590
C3985       C  0.08335452  0.57727136  0.48778185    -0.11880
C3986       C  0.09450818  0.58180870  0.48174805     0.05130
C3987       C  0.10169611  0.59168454  0.48777986    -0.07160
C3988       C  0.09726542  0.59707360  0.49929908    -0.07910
C3989       C  0.08616775  0.59246262  0.50539668    -0.02460
C3990       C  0.07928795  0.58220613  0.49962926     0.04360
N3991       N  0.06864474  0.57614902  0.50591469     0.66860
H3992       H  0.07782988  0.56960031  0.48338761     0.15760
H3993       H  0.10275443  0.60479144  0.50365381     0.15470
N3994       N  0.11383402  0.59587444  0.48282696     0.74570
O3995       O  0.05881021  0.57305571  0.49952582    -0.38880
O3996       O  0.06993096  0.57189505  0.51719854    -0.38820
O3997       O  0.11674369  0.60768135  0.48301543    -0.39530
O3998       O  0.12241301  0.58769982  0.48029594    -0.39590
C3999       C  0.16412806  0.64219325  0.26779485    -0.11880
C4000       C  0.16554033  0.65172589  0.27723603     0.05130
C4001       C  0.16137163  0.66444765  0.27467789    -0.07160
C4002       C  0.15632597  0.66730512  0.26249014    -0.07910
C4003       C  0.15524320  0.65784830  0.25290458    -0.02460
C4004       C  0.15915985  0.64513526  0.25564124     0.04360
N4005       N  0.15877755  0.63526431  0.24603075     0.66860
H4006       H  0.16727985  0.63244635  0.26976800     0.15760
H4007       H  0.15309161  0.67701233  0.26050169     0.15470
N4008       N  0.16154495  0.67440197  0.28434722     0.74570
O4009       O  0.16516283  0.63653997  0.23582644    -0.38880
O4010       O  0.15336575  0.62464814  0.24838295    -0.38820
O4011       O  0.17051296  0.67513552  0.29245898    -0.39530
O4012       O  0.15314899  0.68314803  0.28419910    -0.39590
C4013       C  0.16378647  0.59382087  0.37844601    -0.11880
C4014       C  0.15736242  0.60254805  0.37039429     0.05130
C4015       C  0.14390400  0.60380729  0.37140920    -0.07160
C4016       C  0.13725237  0.59624888  0.38032151    -0.07910
C4017       C  0.14369862  0.58766183  0.38841449    -0.02460
C4018       C  0.15715901  0.58634307  0.38751742     0.04360
N4019       N  0.16424580  0.57758779  0.39560922     0.66860
H4020       H  0.17408689  0.59282746  0.37764844     0.15760
H4021       H  0.12695210  0.59729818  0.38117364     0.15470
N4022       N  0.13690259  0.61309380  0.36399048     0.74570
O4023       O  0.17504262  0.57342820  0.39206372    -0.38880
O4024       O  0.16031027  0.57473188  0.40670334    -0.38820
O4025       O  0.12609230  0.61018313  0.35934159    -0.39530
O4026       O  0.14054967  0.62468931  0.36370950    -0.39590
C4027       C  0.25741296  0.67688650  0.35372130    -0.11880
C4028       C  0.26803540  0.66862529  0.35433476     0.05130
C4029       C  0.26631506  0.65535765  0.35175904    -0.07160
C4030       C  0.25406038  0.65074658  0.34862296    -0.07910
C4031       C  0.24354920  0.65907842  0.34766592    -0.02460
C4032       C  0.24514123  0.67234398  0.35045811     0.04360
N4033       N  0.23452510  0.68124520  0.35061404     0.66860
H4034       H  0.25867822  0.68701269  0.35590922     0.15760
H4035       H  0.25279243  0.64060619  0.34645972     0.15470
N4036       N  0.27691490  0.64655807  0.35161199     0.74570
O4037       O  0.23496094  0.69111671  0.35769999    -0.38880
O4038       O  0.22505851  0.67983793  0.34318745    -0.38820
O4039       O  0.27563517  0.63538467  0.35621170    -0.39530
O4040       O  0.28687087  0.64922055  0.34527160    -0.39590
C4041       C  0.34060609  0.75718302  0.35335149    -0.11880
C4042       C  0.33767981  0.74714867  0.34482012     0.05130
C4043       C  0.33846839  0.74930802  0.33145020    -0.07160
C4044       C  0.34187399  0.76157312  0.32699085    -0.07910
C4045       C  0.34439798  0.77179635  0.33548356    -0.02460
C4046       C  0.34373812  0.76953291  0.34887692     0.04360
N4047       N  0.34557434  0.77968844  0.35805861     0.66860
H4048       H  0.34000271  0.75549963  0.36360870     0.15760
H4049       H  0.34262993  0.76308801  0.31672873     0.15470
N4050       N  0.33656566  0.73911835  0.32227141     0.74570
O4051       O  0.33917977  0.78995847  0.35713041    -0.38880
O4052       O  0.35202503  0.77765314  0.36812553    -0.38820
O4053       O  0.32669264  0.73211320  0.32273452    -0.39530
O4054       O  0.34379386  0.73831932  0.31259521    -0.39590
C4055       C  0.38979693  0.58897901  0.50626980    -0.11880
C4056       C  0.40290604  0.59090982  0.50386175     0.05130
C4057       C  0.41199262  0.58696096  0.51317053    -0.07160
C4058       C  0.40775552  0.58070376  0.52431536    -0.07910
C4059       C  0.39467230  0.57879920  0.52667938    -0.02460
C4060       C  0.38554264  0.58292082  0.51752924     0.04360
N4061       N  0.37204943  0.58052319  0.51918460     0.66860
H4062       H  0.38280484  0.59174237  0.49908364     0.15760
H4063       H  0.41470475  0.57783166  0.53151392     0.15470
N4064       N  0.42539978  0.58987714  0.51188296     0.74570
O4065       O  0.36391462  0.58809470  0.51433654    -0.38880
O4066       O  0.36820490  0.57007910  0.52405121    -0.38820
O4067       O  0.42891596  0.60101701  0.50852985    -0.39530
O4068       O  0.43370676  0.58204076  0.51595323    -0.39590
C4069       C  0.48188378  0.59646791  0.43228558    -0.11880
C4070       C  0.47147367  0.59802690  0.42385706     0.05130
C4071       C  0.47351889  0.59683815  0.41047727    -0.07160
C4072       C  0.48585993  0.59415898  0.40593294    -0.07910
C4073       C  0.49612961  0.59220563  0.41438693    -0.02460
C4074       C  0.49421579  0.59353522  0.42778335     0.04360
N4075       N  0.50458532  0.59254573  0.43691619     0.66860
H4076       H  0.48041269  0.59759820  0.44252090     0.15760
H4077       H  0.48736539  0.59305789  0.39568903     0.15470
N4078       N  0.46315976  0.59758705  0.40141144     0.74570
O4079       O  0.50422770  0.59892124  0.44724509    -0.38880
O4080       O  0.51356881  0.58459404  0.43532077    -0.38820
O4081       O  0.46475896  0.60328966  0.39082970    -0.39530
O4082       O  0.45317912  0.59090449  0.40305148    -0.39590
C4083       C  0.37424700  0.65837282  0.42260263    -0.11880
C4084       C  0.37789869  0.64633919  0.41775265     0.05130
C4085       C  0.37302258  0.64208798  0.40579983    -0.07160
C4086       C  0.36487641  0.65025028  0.39883250    -0.07910
C4087       C  0.36146117  0.66243237  0.40352619    -0.02460
C4088       C  0.36616466  0.66657110  0.41560550     0.04360
N4089       N  0.36255907  0.67873151  0.42115436     0.66860
H4090       H  0.37801877  0.66156074  0.43178322     0.15760
H4091       H  0.36093855  0.64698871  0.38974825     0.15470
N4092       N  0.37575757  0.62941562  0.40087194     0.74570
O4093       O  0.36092163  0.67964093  0.43313260    -0.38880
O4094       O  0.36290612  0.68890111  0.41455063    -0.38820
O4095       O  0.37671583  0.61993351  0.40839442    -0.39530
O4096       O  0.37560694  0.62736368  0.38891654    -0.39590
C4097       C  0.88971366  0.09041465  0.00771237    -0.11880
C4098       C  0.90251895  0.08943618  0.00361811     0.05130
C4099       C  0.91146948  0.08309812  0.01168542    -0.07160
C4100       C  0.90726267  0.07736549  0.02312315    -0.07910
C4101       C  0.89449407  0.07835155  0.02714304    -0.02460
C4102       C  0.88558199  0.08498709  0.01934887     0.04360
N4103       N  0.87225105  0.08582615  0.02274815     0.66860
H4104       H  0.88269471  0.09503410  0.00159635     0.15760
H4105       H  0.91419145  0.07263884  0.02928762     0.15470
N4106       N  0.92494291  0.08308007  0.00893359     0.74570
O4107       O  0.86582419  0.09565387  0.01968693    -0.38880
O4108       O  0.86648692  0.07617997  0.02734229    -0.38820
O4109       O  0.93060409  0.09353496  0.00643610    -0.39530
O4110       O  0.93153728  0.07312926  0.01111044    -0.39590
C4111       C  0.74507044  0.16462761  0.15101084    -0.11880
C4112       C  0.74612957  0.15858741  0.16301083     0.05130
C4113       C  0.73527016  0.15783662  0.17102399    -0.07160
C4114       C  0.72364941  0.16318141  0.16693266    -0.07910
C4115       C  0.72263327  0.16939421  0.15503822    -0.02460
C4116       C  0.73346058  0.17014329  0.14687899     0.04360
N4117       N  0.73298863  0.17652929  0.13457851     0.66860
H4118       H  0.75341064  0.16508579  0.14484432     0.15760
H4119       H  0.71534369  0.16255410  0.17314281     0.15470
N4120       N  0.73568223  0.15116626  0.18304166     0.74570
O4121       O  0.74314788  0.18078154  0.12954421    -0.38880
O4122       O  0.72268718  0.17717175  0.12823911    -0.38820
O4123       O  0.74056283  0.15660893  0.19272761    -0.39530
O4124       O  0.72870427  0.14136251  0.18464580    -0.39590
C4125       C  0.84503796  0.08225948  0.13385994    -0.12840
C4126       C  0.84588127  0.08671607  0.12112010     0.05130
C4127       C  0.83912656  0.09808655  0.11777359    -0.07160
C4128       C  0.83248903  0.10496342  0.12727112    -0.07910
C4129       C  0.83191724  0.10059400  0.13998810    -0.02460
C4130       C  0.83805025  0.08893204  0.14322437     0.04360
N4131       N  0.83655969  0.08319333  0.15564243     0.66860
H4132       H  0.84989758  0.07352350  0.13672349     0.15760
H4133       H  0.82742570  0.11367089  0.12460559     0.15470
N4134       N  0.83815724  0.10241414  0.10474089     0.74570
O4135       O  0.83188687  0.07200474  0.15648279    -0.38880
O4136       O  0.84247758  0.08782828  0.16516014    -0.38820
O4137       O  0.83374396  0.09493546  0.09624063    -0.39530
O4138       O  0.83946231  0.11422534  0.10217524    -0.39590
C4139       C  0.84952240  0.75806904  0.18024360    -0.11880
C4140       C  0.84443498  0.76944984  0.17513063     0.05130
C4141       C  0.83517706  0.76881563  0.16519015    -0.07160
C4142       C  0.83133145  0.75668790  0.16062116    -0.07910
C4143       C  0.83663630  0.74533392  0.16554219    -0.02460
C4144       C  0.84574440  0.74594600  0.17559874     0.04360
N4145       N  0.85094599  0.73449007  0.18142894     0.66860
H4146       H  0.85636133  0.75867307  0.18807465     0.15760
H4147       H  0.82437460  0.75608220  0.15289392     0.15470
N4148       N  0.82938900  0.78019570  0.15980626     0.74570
O4149       O  0.86166937  0.73488978  0.18706276    -0.38880
O4150       O  0.84430966  0.72434664  0.18224463    -0.38820
O4151       O  0.83590118  0.79028375  0.15803712    -0.39530
O4152       O  0.81810444  0.77972560  0.15542063    -0.39590
C4153       C  0.99342452  0.91082421  0.08374024    -0.11880
C4154       C  0.99076414  0.90695731  0.09631952     0.05130
C4155       C  0.99970328  0.89920043  0.10286783    -0.07160
C4156       C  0.01094591  0.89531548  0.09664541    -0.07910
C4157       C  0.01377777  0.89918323  0.08397913    -0.02460
C4158       C  0.00468121  0.90704253  0.07752149     0.04360
N4159       N  0.00644551  0.91123239  0.06460637     0.66860
H4160       H  0.98654570  0.91664780  0.07851660     0.15760
H4161       H  0.01757739  0.88940612  0.10203353     0.15470
N4162       N  0.99783282  0.89569730  0.11603623     0.74570
O4163       O  0.00120314  0.90503108  0.05557671    -0.38880
O4164       O  0.01072069  0.92240787  0.06250258    -0.38820
O4165       O  0.99877270  0.88407022  0.11943188    -0.39530
O4166       O  0.99673766  0.90434843  0.12448891    -0.39590
C4167       C  0.91680770  0.98687775  0.11023663    -0.11880
C4168       C  0.91127383  0.97570852  0.10505066     0.05130
C4169       C  0.90118349  0.97675903  0.09601049    -0.07160
C4170       C  0.89695751  0.98906945  0.09239749    -0.07910
C4171       C  0.90239126  0.00022245  0.09769861    -0.02460
C4172       C  0.91252306  0.99919174  0.10668478     0.04360
N4173       N  0.91877972  0.01039679  0.11200310     0.66860
H4174       H  0.92473251  0.98595498  0.11692052     0.15760
H4175       H  0.88917342  0.98998754  0.08554852     0.15470
N4176       N  0.89534472  0.96560373  0.09017046     0.74570
O4177       O  0.92457138  0.00966377  0.12263908    -0.38880
O4178       O  0.91972458  0.02065345  0.10557067    -0.38820
O4179       O  0.89349636  0.95546141  0.09657178    -0.39530
O4180       O  0.89073159  0.96632535  0.07897231    -0.39590
C4181       C  0.89258501  0.88302022  0.15427745    -0.11880
C4182       C  0.90599957  0.88186055  0.15385058     0.05130
C4183       C  0.91192859  0.87140805  0.16026706    -0.07160
C4184       C  0.90427470  0.86213667  0.16634437    -0.07910
C4185       C  0.89093128  0.86339173  0.16676811    -0.02460
C4186       C  0.88495234  0.87394591  0.16068068     0.04360
N4187       N  0.87122000  0.87540973  0.16055138     0.66860
H4188       H  0.88793134  0.89083950  0.14923064     0.15760
H4189       H  0.90880848  0.85421780  0.17137806     0.15470
N4190       N  0.92561332  0.87047375  0.16147324     0.74570
O4191       O  0.86630240  0.88648475  0.15974832    -0.38880
O4192       O  0.86397992  0.86567551  0.15988532    -0.38820
O4193       O  0.93206056  0.88015781  0.16499935    -0.39530
O4194       O  0.93098717  0.85959347  0.16107998    -0.39590
C4195       C  0.88851008  0.91154033  0.48859495    -0.11880
C4196       C  0.89753904  0.91894188  0.48192045     0.05130
C4197       C  0.90976255  0.92092355  0.48745798    -0.07160
C4198       C  0.91240697  0.91593673  0.49969783    -0.07910
C4199       C  0.90340805  0.90843640  0.50645724    -0.02460
C4200       C  0.89132118  0.90613922  0.50059931     0.04360
N4201       N  0.88185093  0.89805540  0.50636608     0.66860
H4202       H  0.87912564  0.90985422  0.48442846     0.15760
H4203       H  0.92176323  0.91781188  0.50377311     0.15470
N4204       N  0.91982622  0.92735692  0.48058397     0.74570
O4205       O  0.87087552  0.90253487  0.50878084    -0.38880
O4206       O  0.88360670  0.88603754  0.50676774    -0.38820
O4207       O  0.92732638  0.93491958  0.48642713    -0.39530
O4208       O  0.92243034  0.92403756  0.46921678    -0.39590
C4209       C  0.83530901  0.85370141  0.27246789    -0.11880
C4210       C  0.82556313  0.84607954  0.27783638     0.05130
C4211       C  0.82153157  0.83488593  0.27117249    -0.07160
C4212       C  0.82677613  0.83207031  0.25912115    -0.07910
C4213       C  0.83654390  0.83966179  0.25375860    -0.02460
C4214       C  0.84109076  0.85045002  0.26075684     0.04360
N4215       N  0.85197606  0.85778837  0.25658189     0.66860
H4216       H  0.83868869  0.86216864  0.27752883     0.15760
H4217       H  0.82329999  0.82366022  0.25403499     0.15470
N4218       N  0.81272710  0.82584953  0.27672269     0.74570
O4219       O  0.85195780  0.86990225  0.25765637    -0.38880
O4220       O  0.86234009  0.85212185  0.25394275    -0.38820
O4221       O  0.80401704  0.82087645  0.26988584    -0.39530
O4222       O  0.81498062  0.82120145  0.28769672    -0.39590
C4223       C  0.74675827  0.83096356  0.35757438    -0.11880
C4224       C  0.74708911  0.83976876  0.34736772     0.05130
C4225       C  0.73549845  0.84357787  0.34141102    -0.07160
C4226       C  0.72390261  0.83838777  0.34581519    -0.07910
C4227       C  0.72361301  0.82939346  0.35581627    -0.02460
C4228       C  0.73514802  0.82565157  0.36190991     0.04360
N4229       N  0.73528946  0.81671681  0.37251765     0.66860
H4230       H  0.75565639  0.82829292  0.36224720     0.15760
H4231       H  0.71500726  0.84119722  0.34121106     0.15470
N4232       N  0.73517536  0.85299889  0.33129870     0.74570
O4233       O  0.74536006  0.81052147  0.37515740    -0.38880
O4234       O  0.72582573  0.81580302  0.37999694    -0.38820
O4235       O  0.74236822  0.85187300  0.32164602    -0.39530
O4236       O  0.72626738  0.86120822  0.33097210    -0.39590
C4237       C  0.83614769  0.90838164  0.36854259    -0.11880
C4238       C  0.83428706  0.89529347  0.37116342     0.05130
C4239       C  0.83917764  0.88998848  0.38264878    -0.07160
C4240       C  0.84596472  0.89797868  0.39117278    -0.07910
C4241       C  0.84788455  0.91115183  0.38862692    -0.02460
C4242       C  0.84253868  0.91646132  0.37727539     0.04360
N4243       N  0.84271878  0.93006180  0.37482001     0.66860
H4244       H  0.83202024  0.91247697  0.35990048     0.15760
H4245       H  0.85012421  0.89370457  0.39968665     0.15470
N4246       N  0.83771148  0.87652300  0.38565114     0.74570
O4247       O  0.84449992  0.93416280  0.36355132    -0.38880
O4248       O  0.83897576  0.93781946  0.38336696    -0.38820
O4249       O  0.83812011  0.86811223  0.37689596    -0.39530
O4250       O  0.83729931  0.87288676  0.39721220    -0.39590
C4251       C  0.00268298  0.08192192  0.41808122    -0.11880
C4252       C  0.99431942  0.09180200  0.41423099     0.05130
C4253       C  0.99837211  0.10477731  0.41545200    -0.07160
C4254       C  0.01075097  0.10746108  0.41999531    -0.07910
C4255       C  0.01898855  0.09759037  0.42396022    -0.02460
C4256       C  0.01497090  0.08462496  0.42291383     0.04360
N4257       N  0.02334567  0.07411454  0.42619029     0.66860
H4258       H  0.99979873  0.07196146  0.41694597     0.15760
H4259       H  0.01372607  0.11740744  0.42112380     0.15470
N4260       N  0.98984995  0.11534698  0.41301790     0.74570
O4261       O  0.01873937  0.06365217  0.43030064    -0.38880
O4262       O  0.03513647  0.07465513  0.42353939    -0.38820
O4263       O  0.97883515  0.11545550  0.41801304    -0.39530
O4264       O  0.99401179  0.12545834  0.40773489    -0.39590
C4265       C  0.92448126  0.01197259  0.40893748    -0.11880
C4266       C  0.91599024  0.02147308  0.40445651     0.05130
C4267       C  0.90282945  0.01831743  0.40313835    -0.07160
C4268       C  0.89859829  0.00586356  0.40625889    -0.07910
C4269       C  0.90705620  0.99661169  0.41116361    -0.02460
C4270       C  0.92017230  0.99968139  0.41240355     0.04360
N4271       N  0.92937779  0.99027409  0.41644145     0.66860
H4272       H  0.93462994  0.01403734  0.40970549     0.15760
H4273       H  0.88850541  0.00353820  0.40533807     0.15470
N4274       N  0.89351575  0.02770505  0.39930885     0.74570
O4275       O  0.93899979  0.98801645  0.40947167    -0.38880
O4276       O  0.92938471  0.98633513  0.42789671    -0.38820
O4277       O  0.88501106  0.02477125  0.39116812    -0.39530
O4278       O  0.89250052  0.03811296  0.40549967    -0.39590
C4279       C  0.85355940  0.23459798  0.34049964    -0.11880
C4280       C  0.84395126  0.22695974  0.33492237     0.05130
C4281       C  0.83132172  0.23180577  0.33410138    -0.07160
C4282       C  0.82870410  0.24422914  0.33871568    -0.07910
C4283       C  0.83832870  0.25198434  0.34419730    -0.02460
C4284       C  0.85100341  0.24712849  0.34486094     0.04360
N4285       N  0.86154324  0.25498070  0.34907491     0.66860
H4286       H  0.86331730  0.23104625  0.34081951     0.15760
H4287       H  0.81891873  0.24766746  0.33839356     0.15470
N4288       N  0.82094834  0.22411356  0.32915310     0.74570
O4289       O  0.87034509  0.25013035  0.35585125    -0.38880
O4290       O  0.86317185  0.26603553  0.34430331    -0.38820
O4291       O  0.81991215  0.21241819  0.33229907    -0.39530
O4292       O  0.81192711  0.22936724  0.32299517    -0.39590
C4293       C  0.82469492  0.15148321  0.25636509    -0.11880
C4294       C  0.83702474  0.15682172  0.25615110     0.05130
C4295       C  0.84332123  0.15872967  0.24428389    -0.07160
C4296       C  0.83686416  0.15542338  0.23288641    -0.07910
C4297       C  0.82442041  0.15027992  0.23306399    -0.02460
C4298       C  0.81829327  0.14815345  0.24498201     0.04360
N4299       N  0.80597471  0.14202318  0.24583297     0.66860
H4300       H  0.81996034  0.14997433  0.26550246     0.15760
H4301       H  0.84160892  0.15679624  0.22373878     0.15470
N4302       N  0.85608951  0.16403443  0.24354680     0.74570
O4303       O  0.80417670  0.13328116  0.25405623    -0.38880
O4304       O  0.79639470  0.14683916  0.24022306    -0.38820
O4305       O  0.86411634  0.16220660  0.25244262    -0.39530
O4306       O  0.85977719  0.16961196  0.23343299    -0.39590
C4307       C  0.90588966  0.13631219  0.34473692    -0.11880
C4308       C  0.89309242  0.13319566  0.34215648     0.05130
C4309       C  0.88797831  0.12153500  0.34690044    -0.07160
C4310       C  0.89594338  0.11319309  0.35388108    -0.07910
C4311       C  0.90898338  0.11598072  0.35609862    -0.02460
C4312       C  0.91390000  0.12784051  0.35145703     0.04360
N4313       N  0.92703229  0.13140180  0.35307961     0.66860
H4314       H  0.90981122  0.14531134  0.34119762     0.15760
H4315       H  0.89176767  0.10441832  0.35758183     0.15470
N4316       N  0.87467601  0.11821308  0.34529445     0.74570
O4317       O  0.93548680  0.12625824  0.34611579    -0.38880
O4318       O  0.92986136  0.14119190  0.35970899    -0.38820
O4319       O  0.86936319  0.11903752  0.33443464    -0.39530
O4320       O  0.86870247  0.11276122  0.35431800    -0.39590
loop_ 
_geom_bond_atom_site_label_1 
_geom_bond_atom_site_label_2 
_geom_bond_distance 
_geom_bond_site_symmetry_2 
_ccdc_geom_bond_type 
N1            N2   1.322       .  A
N1            C5   1.346       .  A
N1           Cu9   2.077       .  S
N2            C3   1.344       .  A
N2           Cu8   2.072       .  S
C3            C4   1.384       .  A
C3            H6   1.082       .  S
C4            C5   1.384       .  A
C4         C4280   1.480       .  S
C5            H7   1.082       .  S
Cu8          N11   2.072       .  S
Cu9          N19   2.077       .  S
Cu10         N12   2.069       .  S
Cu10         N18   2.070       .  S
N11          N12   1.322       .  A
N11          C15   1.345       .  A
N12          C13   1.345       .  A
C13          C14   1.381       .  A
C13          H16   1.082       .  S
C14          C15   1.381       .  A
C14        C4294   1.470       .  S
C15          H17   1.082       .  S
N18          N19   1.323       .  A
N18          C22   1.344       .  A
N19          C20   1.346       .  A
C20          C21   1.383       .  A
C20          H23   1.082       .  S
C21          C22   1.381       .  A
C21        C4308   1.474       .  S
C22          H24   1.082       .  S
N25          N26   1.320       .  A
N25          C29   1.344       .  A
N25         Cu33   2.069       .  S
N26          C27   1.344       .  A
N26         Cu32   2.072       .  S
C27          C28   1.387       .  A
C27          H30   1.082       .  S
C28          C29   1.387       .  A
C28        C4252   1.486       .  S
C29          H31   1.081       .  S
Cu32         N35   2.072       .  S
Cu33         N43   2.069       .  S
Cu34         N36   2.077       .  S
Cu34         N42   2.077       .  S
N35          N36   1.321       .  A
N35          C39   1.343       .  A
N36          C37   1.346       .  A
C37          C38   1.389       .  A
C37          H40   1.081       .  S
C38          C39   1.387       .  A
C38        C4266   1.489       .  S
C39          H41   1.082       .  S
N42          N43   1.319       .  A
N42          C46   1.343       .  A
N43          C44   1.344       .  A
C44          C45   1.391       .  A
C44          H47   1.079       .  S
C45          C46   1.393       .  A
C45        C4311   1.498       .  S
C46          H48   1.081       .  S
N49          N50   1.322       .  A
N49          C53   1.346       .  A
N49         Cu57   2.077       .  S
N50          C51   1.343       .  A
N50         Cu56   2.065       .  S
C51          C52   1.381       .  A
C51          H54   1.082       .  S
C52          C53   1.384       .  A
C52        C4224   1.475       .  S
C53          H55   1.082       .  S
Cu56         N59   2.064       .  S
Cu57         N67   2.077       .  S
Cu58         N60   2.071       .  S
Cu58         N66   2.072       .  S
N59          N60   1.320       .  A
N59          C63   1.342       .  A
N60          C61   1.344       .  A
C61          C62   1.388       .  A
C61          H64   1.082       .  S
C62          C63   1.387       .  A
C62        C4210   1.488       .  S
C63          H65   1.081       .  S
N66          N67   1.323       .  A
N66          C70   1.345       .  A
N67          C68   1.345       .  A
C68          C69   1.382       .  A
C68          H71   1.082       .  S
C69          C70   1.380       .  A
C69        C4238   1.472       .  S
C70          H72   1.082       .  S
N73          N74   1.321       .  A
N73          C77   1.345       .  A
N73         Cu81   2.074       .  S
N74          C75   1.344       .  A
N74         Cu80   2.068       .  S
C75          C76   1.385       .  A
C75          H78   1.082       .  S
C76          C77   1.387       .  A
C76        C4196   1.484       .  S
C77          H79   1.082       .  S
Cu80         N83   2.068       .  S
Cu81         N91   2.075       .  S
Cu82         N84   2.075       .  S
Cu82         N90   2.075       .  S
N83          N84   1.322       .  A
N83          C87   1.343       .  A
N84          C85   1.346       .  A
C85          C86   1.384       .  A
C85          H88   1.082       .  S
C86          C87   1.382       .  A
C86        C4269   1.476       .  S
C87          H89   1.081       .  S
N90          N91   1.321       .  A
N90          C94   1.344       .  A
N91          C92   1.344       .  A
C92          C93   1.388       .  A
C92          H95   1.081       .  S
C93          C94   1.389       .  A
C93        C4241   1.491       .  S
C94          H96   1.081       .  S
N97          N98   1.323       .  A
N97         C101   1.345       .  A
N97        Cu105   2.072       .  S
N98          C99   1.344       .  A
N98        Cu104   2.071       .  S
C99         C100   1.380       .  A
C99         H102   1.082       .  S
C100        C101   1.382       .  A
C100       C4168   1.472       .  S
C101        H103   1.082       .  S
Cu104       N107   2.071       .  S
Cu105       N115   2.072       .  S
Cu106       N108   2.066       .  S
Cu106       N114   2.066       .  S
N107        N108   1.321       .  A
N107        C111   1.344       .  A
N108        C109   1.344       .  A
C109        C110   1.384       .  A
C109        H112   1.082       .  S
C110        C111   1.385       .  A
C110       C4154   1.479       .  S
C111        H113   1.082       .  S
N114        N115   1.321       .  A
N114        C118   1.343       .  A
N115        C116   1.344       .  A
C116        C117   1.387       .  A
C116        H119   1.082       .  S
C117        C118   1.386       .  A
C117       C4182   1.485       .  S
C118        H120   1.081       .  S
N121        N122   1.322       .  A
N121        C125   1.344       .  A
N121       Cu129   2.067       .  S
N122        C123   1.344       .  A
N122       Cu128   2.070       .  S
C123        C124   1.381       .  A
C123        H126   1.082       .  S
C124        C125   1.381       .  A
C124       C4140   1.470       .  S
C125        H127   1.082       .  S
Cu128       N131   2.070       .  S
Cu129       N139   2.067       .  S
Cu130       N132   2.068       .  S
Cu130       N138   2.069       .  S
N131        N132   1.320       .  A
N131        C135   1.343       .  A
N132        C133   1.344       .  A
C133        C134   1.388       .  A
C133        H136   1.081       .  S
C134        C135   1.388       .  A
C134       C4213   1.488       .  S
C135        H137   1.082       .  S
N138        N139   1.323       .  A
N138        C142   1.344       .  A
N139        C140   1.344       .  A
C140        C141   1.380       .  A
C140        H143   1.082       .  S
C141        C142   1.380       .  A
C141       C4185   1.469       .  S
C142        H144   1.082       .  S
N145        N146   1.322       .  A
N145        C149   1.346       .  A
N145       Cu153   2.081       .  S
N146        C147   1.344       .  A
N146       Cu152   2.068       .  S
C147        C148   1.382       .  A
C147        H150   1.081       .  S
C148        C149   1.385       .  A
C148       C4112   1.478       .  S
C149        H151   1.082       .  S
Cu152       N155   2.068       .  S
Cu153       N163   2.081       .  S
Cu154       N156   2.072       .  S
Cu154       N162   2.072       .  S
N155        N156   1.321       .  A
N155        C159   1.344       .  A
N156        C157   1.345       .  A
C157        C158   1.384       .  A
C157        H160   1.082       .  S
C158        C159   1.383       .  A
C158       C4297   1.476       .  S
C159        H161   1.081       .  S
N162        N163   1.322       .  A
N162        C166   1.344       .  A
N163        C164   1.346       .  A
C164        C165   1.386       .  A
C164        H167   1.082       .  S
C165        C166   1.384       .  A
C165       C4129   1.481       .  S
C166        H168   1.080       .  S
N169        N170   1.323       .  A
N169        C173   1.346       .  A
N169       Cu177   2.075       .  S
N170        C171   1.345       .  A
N170       Cu176   2.072       .  S
C171        C172   1.380       .  A
C171        H174   1.082       .  S
C172        C173   1.381       .  A
C172       C4171   1.471       .  S
C173        H175   1.082       .  S
Cu176       N179   2.072       .  S
Cu177       N187   2.075       .  S
Cu178       N180   2.077       .  S
Cu178       N186   2.077       .  S
N179        N180   1.322       .  A
N179        C183   1.344       .  A
N180        C181   1.346       .  A
C181        C182   1.385       .  A
C181        H184   1.082       .  S
C182        C183   1.383       .  A
C182       C4101   1.479       .  S
C183        H185   1.082       .  S
N186        N187   1.320       .  A
N186        C190   1.344       .  A
N187        C188   1.344       .  A
C188        C189   1.391       .  A
C188        H191   1.081       .  S
C189        C190   1.391       .  A
C189       C4126   1.496       .  S
C190        H192   1.080       .  S
N193        N194   1.321       .  A
N193        C197   1.344       .  A
N193       Cu201   2.070       .  S
N194        C195   1.344       .  A
N194       Cu200   2.071       .  S
C195        C196   1.386       .  A
C195        H198   1.082       .  S
C196        C197   1.385       .  A
C196       C4056   1.483       .  S
C197        H199   1.082       .  S
Cu200       N203   2.071       .  S
Cu201       N211   2.070       .  S
Cu202       N204   2.066       .  S
Cu202       N210   2.066       .  S
N203        N204   1.321       .  A
N203        C207   1.343       .  A
N204        C205   1.344       .  A
C205        C206   1.385       .  A
C205        H208   1.082       .  S
C206        C207   1.386       .  A
C206       C4070   1.482       .  S
C207        H209   1.082       .  S
N210        N211   1.322       .  A
N210        C214   1.344       .  A
N211        C212   1.344       .  A
C212        C213   1.381       .  A
C212        H215   1.082       .  S
C213        C214   1.381       .  A
C213       C4084   1.471       .  S
C214        H216   1.082       .  S
N217        N218   1.322       .  A
N217        C221   1.345       .  A
N217       Cu225   2.068       .  S
N218        C219   1.343       .  A
N218       Cu224   2.070       .  S
C219        C220   1.382       .  A
C219        H222   1.082       .  S
C220        C221   1.382       .  A
C220       C4042   1.472       .  S
C221        H223   1.082       .  S
Cu224       N227   2.070       .  S
Cu225       N235   2.068       .  S
Cu226       N228   2.072       .  S
Cu226       N234   2.072       .  S
N227        N228   1.321       .  A
N227        C231   1.343       .  A
N228        C229   1.345       .  A
C229        C230   1.386       .  A
C229        H232   1.082       .  S
C230        C231   1.384       .  A
C230       C4028   1.482       .  S
C231        H233   1.082       .  S
N234        N235   1.322       .  A
N234        C238   1.344       .  A
N235        C236   1.344       .  A
C236        C237   1.382       .  A
C236        H239   1.082       .  S
C237        C238   1.382       .  A
C237       C4087   1.472       .  S
C238        H240   1.082       .  S
N241        N242   1.322       .  A
N241        C245   1.345       .  A
N241       Cu249   2.070       .  S
N242        C243   1.344       .  A
N242       Cu248   2.073       .  S
C243        C244   1.382       .  A
C243        H246   1.082       .  S
C244        C245   1.381       .  A
C244       C4000   1.472       .  S
C245        H247   1.082       .  S
Cu248       N251   2.073       .  S
Cu249       N259   2.070       .  S
Cu250       N252   2.071       .  S
Cu250       N258   2.071       .  S
N251        N252   1.323       .  A
N251        C255   1.344       .  A
N252        C253   1.345       .  A
C253        C254   1.381       .  A
C253        H256   1.082       .  S
C254        C255   1.382       .  A
C254       C4031   1.472       .  S
C255        H257   1.082       .  S
N258        N259   1.322       .  A
N258        C262   1.344       .  A
N259        C260   1.344       .  A
C260        C261   1.385       .  A
C260        H263   1.082       .  S
C261        C262   1.384       .  A
C261       C4014   1.481       .  S
C262        H264   1.082       .  S
N265        N266   1.321       .  A
N265        C269   1.345       .  A
N265       Cu273   2.072       .  S
N266        C267   1.343       .  A
N266       Cu272   2.070       .  S
C267        C268   1.386       .  A
C267        H270   1.082       .  S
C268        C269   1.388       .  A
C268       C3986   1.486       .  S
C269        H271   1.081       .  S
Cu272       N275   2.070       .  S
Cu273       N283   2.072       .  S
Cu274       N276   2.071       .  S
Cu274       N282   2.070       .  S
N275        N276   1.321       .  A
N275        C279   1.344       .  A
N276        C277   1.344       .  A
C277        C278   1.387       .  A
C277        H280   1.082       .  S
C278        C279   1.387       .  A
C278       C3975   1.486       .  S
C279        H281   1.081       .  S
N282        N283   1.323       .  A
N282        C286   1.345       .  A
N283        C284   1.344       .  A
C284        C285   1.380       .  A
C284        H287   1.082       .  S
C285        C286   1.380       .  A
C285       C4017   1.468       .  S
C286        H288   1.082       .  S
N289        N290   1.320       .  A
N289        C293   1.344       .  A
N289       Cu297   2.070       .  S
N290        C291   1.344       .  A
N290       Cu296   2.073       .  S
C291        C292   1.389       .  A
C291        H294   1.081       .  S
C292        C293   1.388       .  A
C292       C3944   1.489       .  S
C293        H295   1.082       .  S
Cu296       N299   2.073       .  S
Cu297       N307   2.070       .  S
Cu298       N300   2.078       .  S
Cu298       N306   2.078       .  S
N299        N300   1.322       .  A
N299        C303   1.345       .  A
N300        C301   1.345       .  A
C301        C302   1.387       .  A
C301        H304   1.082       .  S
C302        C303   1.386       .  A
C302       C3930   1.486       .  S
C303        H305   1.082       .  S
N306        N307   1.320       .  A
N306        C310   1.345       .  A
N307        C308   1.343       .  A
C308        C309   1.390       .  A
C308        H311   1.080       .  S
C309        C310   1.391       .  A
C309       C3958   1.495       .  S
C310        H312   1.081       .  S
N313        N314   1.322       .  A
N313        C317   1.346       .  A
N313       Cu321   2.074       .  S
N314        C315   1.343       .  A
N314       Cu320   2.072       .  S
C315        C316   1.385       .  A
C315        H318   1.082       .  S
C316        C317   1.386       .  A
C316       C3916   1.483       .  S
C317        H319   1.082       .  S
Cu320       N323   2.071       .  S
Cu321       N331   2.074       .  S
Cu322       N324   2.072       .  S
Cu322       N330   2.072       .  S
N323        N324   1.321       .  A
N323        C327   1.344       .  A
N324        C325   1.344       .  A
C325        C326   1.387       .  A
C325        H328   1.082       .  S
C326        C327   1.387       .  A
C326       C3902   1.486       .  S
C327        H329   1.081       .  S
N330        N331   1.323       .  A
N330        C334   1.345       .  A
N331        C332   1.345       .  A
C332        C333   1.382       .  A
C332        H335   1.082       .  S
C333        C334   1.382       .  A
C333       C3961   1.474       .  S
C334        H336   1.082       .  S
N337        N338   1.321       .  A
N337        C341   1.343       .  A
N337       Cu345   2.069       .  S
N338        C339   1.345       .  A
N338       Cu344   2.074       .  S
C339        C340   1.388       .  A
C339        H342   1.081       .  S
C340        C341   1.387       .  A
C340       C3989   1.488       .  S
C341        H343   1.082       .  S
Cu344       N347   2.074       .  S
Cu345       N355   2.068       .  S
Cu346       N348   2.073       .  S
Cu346       N354   2.073       .  S
N347        N348   1.321       .  A
N347        C351   1.344       .  A
N348        C349   1.344       .  A
C349        C350   1.388       .  A
C349        H352   1.082       .  S
C350        C351   1.389       .  A
C350       C3874   1.490       .  S
C351        H353   1.081       .  S
N354        N355   1.321       .  A
N354        C358   1.345       .  A
N355        C356   1.344       .  A
C356        C357   1.385       .  A
C356        H359   1.082       .  S
C357        C358   1.385       .  A
C357       C3888   1.481       .  S
C358        H360   1.082       .  S
N361        N362   1.322       .  A
N361        C365   1.345       .  A
N361       Cu369   2.078       .  S
N362        C363   1.344       .  A
N362       Cu368   2.072       .  S
C363        C364   1.386       .  A
C363        H366   1.082       .  S
C364        C365   1.386       .  A
C364       C3846   1.485       .  S
C365        H367   1.082       .  S
Cu368       N371   2.071       .  S
Cu369       N379   2.078       .  S
Cu370       N372   2.065       .  S
Cu370       N378   2.065       .  S
N371        N372   1.322       .  A
N371        C375   1.345       .  A
N372        C373   1.344       .  A
C373        C374   1.379       .  A
C373        H376   1.082       .  S
C374        C375   1.382       .  A
C374       C3860   1.469       .  S
C375        H377   1.082       .  S
N378        N379   1.320       .  A
N378        C382   1.344       .  A
N379        C380   1.344       .  A
C380        C381   1.390       .  A
C380        H383   1.082       .  S
C381        C382   1.387       .  A
C381       C3891   1.490       .  S
C382        H384   1.081       .  S
N385        N386   1.323       .  A
N385        C389   1.346       .  A
N385       Cu393   2.076       .  S
N386        C387   1.346       .  A
N386       Cu392   2.078       .  S
C387        C388   1.381       .  A
C387        H390   1.082       .  S
C388        C389   1.382       .  A
C388       C3804   1.473       .  S
C389        H391   1.082       .  S
Cu392       N395   2.078       .  S
Cu393       N403   2.076       .  S
Cu394       N396   2.075       .  S
Cu394       N402   2.075       .  S
N395        N396   1.322       .  A
N395        C399   1.346       .  A
N396        C397   1.345       .  A
C397        C398   1.385       .  A
C397        H400   1.082       .  S
C398        C399   1.385       .  A
C398       C3821   1.482       .  S
C399        H401   1.082       .  S
N402        N403   1.321       .  A
N402        C406   1.345       .  A
N403        C404   1.344       .  A
C404        C405   1.388       .  A
C404        H407   1.082       .  S
C405        C406   1.388       .  A
C405       C3832   1.490       .  S
C406        H408   1.081       .  S
N409        N410   1.323       .  A
N409        C413   1.346       .  A
N409       Cu417   2.077       .  S
N410        C411   1.345       .  A
N410       Cu416   2.071       .  S
C411        C412   1.380       .  A
C411        H414   1.082       .  S
C412        C413   1.382       .  A
C412       C3790   1.473       .  S
C413        H415   1.082       .  S
Cu416       N419   2.071       .  S
Cu417       N427   2.078       .  S
Cu418       N420   2.074       .  S
Cu418       N426   2.075       .  S
N419        N420   1.322       .  A
N419        C423   1.344       .  A
N420        C421   1.346       .  A
C421        C422   1.385       .  A
C421        H424   1.082       .  S
C422        C423   1.383       .  A
C422       C3947   1.478       .  S
C423        H425   1.082       .  S
N426        N427   1.323       .  A
N426        C430   1.345       .  A
N427        C428   1.346       .  A
C428        C429   1.382       .  A
C428        H431   1.082       .  S
C429        C430   1.381       .  A
C429       C3835   1.473       .  S
C430        H432   1.082       .  S
N433        N434   1.322       .  A
N433        C437   1.345       .  A
N433       Cu441   2.076       .  S
N434        C435   1.345       .  A
N434       Cu440   2.073       .  S
C435        C436   1.386       .  A
C435        H438   1.082       .  S
C436        C437   1.386       .  A
C436       C3748   1.484       .  S
C437        H439   1.082       .  S
Cu440       N443   2.073       .  S
Cu441       N451   2.075       .  S
Cu442       N444   2.076       .  S
Cu442       N450   2.076       .  S
N443        N444   1.322       .  A
N443        C447   1.345       .  A
N444        C445   1.345       .  A
C445        C446   1.385       .  A
C445        H448   1.081       .  S
C446        C447   1.384       .  A
C446       C3762   1.479       .  S
C447        H449   1.082       .  S
N450        N451   1.323       .  A
N450        C454   1.346       .  A
N451        C452   1.345       .  A
C452        C453   1.382       .  A
C452        H455   1.082       .  S
C453        C454   1.382       .  A
C453       C3776   1.474       .  S
C454        H456   1.082       .  S
N457        N458   1.322       .  A
N457        C461   1.345       .  A
N457       Cu465   2.070       .  S
N458        C459   1.345       .  A
N458       Cu464   2.070       .  S
C459        C460   1.381       .  A
C459        H462   1.082       .  S
C460        C461   1.381       .  A
C460       C4227   1.469       .  S
C461        H463   1.082       .  S
Cu464       N467   2.070       .  S
Cu465       N475   2.071       .  S
Cu466       N468   2.080       .  S
Cu466       N474   2.080       .  S
N467        N468   1.323       .  A
N467        C471   1.344       .  A
N468        C469   1.346       .  A
C469        C470   1.383       .  A
C469        H472   1.082       .  S
C470        C471   1.381       .  A
C470       C3737   1.475       .  S
C471        H473   1.082       .  S
N474        N475   1.322       .  A
N474        C478   1.346       .  A
N475        C476   1.344       .  A
C476        C477   1.383       .  A
C476        H479   1.080       .  S
C477        C478   1.385       .  A
C477       C3779   1.479       .  S
C478        H480   1.082       .  S
N481        N482   1.323       .  A
N481        C485   1.345       .  A
N481       Cu489   2.071       .  S
N482        C483   1.346       .  A
N482       Cu488   2.075       .  S
C483        C484   1.382       .  A
C483        H486   1.082       .  S
C484        C485   1.380       .  A
C484       C3734   1.471       .  S
C485        H487   1.082       .  S
Cu488       N491   2.075       .  S
Cu489       N499   2.071       .  S
Cu490       N492   2.073       .  S
Cu490       N498   2.073       .  S
N491        N492   1.322       .  A
N491        C495   1.345       .  A
N492        C493   1.345       .  A
C493        C494   1.384       .  A
C493        H496   1.082       .  S
C494        C495   1.384       .  A
C494       C3706   1.479       .  S
C495        H497   1.082       .  S
N498        N499   1.321       .  A
N498        C502   1.344       .  A
N499        C500   1.344       .  A
C500        C501   1.385       .  A
C500        H503   1.082       .  S
C501        C502   1.385       .  A
C501       C3720   1.483       .  S
C502        H504   1.082       .  S
N505        N506   1.322       .  A
N505        C509   1.345       .  A
N505       Cu513   2.071       .  S
N506        C507   1.343       .  A
N506       Cu512   2.067       .  S
C507        C508   1.381       .  A
C507        H510   1.082       .  S
C508        C509   1.382       .  A
C508       C4073   1.471       .  S
C509        H511   1.082       .  S
Cu512       N515   2.066       .  S
Cu513       N523   2.071       .  S
Cu514       N516   2.073       .  S
Cu514       N522   2.074       .  S
N515        N516   1.320       .  A
N515        C519   1.343       .  A
N516        C517   1.344       .  A
C517        C518   1.388       .  A
C517        H520   1.082       .  S
C518        C519   1.387       .  A
C518       C3692   1.487       .  S
C519        H521   1.081       .  S
N522        N523   1.323       .  A
N522        C526   1.344       .  A
N523        C524   1.345       .  A
C524        C525   1.380       .  A
C524        H527   1.082       .  S
C525        C526   1.380       .  A
C525       C3723   1.469       .  S
C526        H528   1.082       .  S
N529        N530   1.323       .  A
N529        C533   1.346       .  A
N529       Cu537   2.077       .  S
N530        C531   1.345       .  A
N530       Cu536   2.077       .  S
C531        C532   1.383       .  A
C531        H534   1.082       .  S
C532        C533   1.384       .  A
C532       C3807   1.478       .  S
C533        H535   1.082       .  S
Cu536       N539   2.076       .  S
Cu537       N547   2.076       .  S
Cu538       N540   2.077       .  S
Cu538       N546   2.077       .  S
N539        N540   1.323       .  A
N539        C543   1.345       .  A
N540        C541   1.346       .  A
C541        C542   1.383       .  A
C541        H544   1.082       .  S
C542        C543   1.383       .  A
C542       C3664   1.478       .  S
C543        H545   1.082       .  S
N546        N547   1.323       .  A
N546        C550   1.345       .  A
N547        C548   1.346       .  A
C548        C549   1.381       .  A
C548        H551   1.082       .  S
C549        C550   1.382       .  A
C549       C3678   1.473       .  S
C550        H552   1.082       .  S
N553        N554   1.322       .  A
N553        C557   1.346       .  A
N553       Cu561   2.078       .  S
N554        C555   1.345       .  A
N554       Cu560   2.074       .  S
C555        C556   1.384       .  A
C555        H558   1.082       .  S
C556        C557   1.384       .  A
C556       C3636   1.480       .  S
C557        H559   1.082       .  S
Cu560       N563   2.074       .  S
Cu561       N571   2.078       .  S
Cu562       N564   2.077       .  S
Cu562       N570   2.077       .  S
N563        N564   1.321       .  A
N563        C567   1.344       .  A
N564        C565   1.346       .  A
C565        C566   1.387       .  A
C565        H568   1.082       .  S
C566        C567   1.386       .  A
C566       C3650   1.487       .  S
C567        H569   1.082       .  S
N570        N571   1.322       .  A
N570        C574   1.346       .  A
N571        C572   1.345       .  A
C572        C573   1.386       .  A
C572        H575   1.082       .  S
C573        C574   1.387       .  A
C573       C3681   1.487       .  S
C574        H576   1.082       .  S
N577        N578   1.322       .  A
N577        C581   1.346       .  A
N577       Cu585   2.076       .  S
N578        C579   1.343       .  A
N578       Cu584   2.070       .  S
C579        C580   1.382       .  A
C579        H582   1.082       .  S
C580        C581   1.383       .  A
C580       C3919   1.475       .  S
C581        H583   1.082       .  S
Cu584       N587   2.070       .  S
Cu585       N595   2.076       .  S
Cu586       N588   2.077       .  S
Cu586       N594   2.078       .  S
N587        N588   1.320       .  A
N587        C591   1.344       .  A
N588        C589   1.344       .  A
C589        C590   1.389       .  A
C589        H592   1.082       .  S
C590        C591   1.388       .  A
C590       C3765   1.491       .  S
C591        H593   1.081       .  S
N594        N595   1.322       .  A
N594        C598   1.345       .  A
N595        C596   1.345       .  A
C596        C597   1.385       .  A
C596        H599   1.082       .  S
C597        C598   1.386       .  A
C597       C3622   1.485       .  S
C598        H600   1.082       .  S
N601        N602   1.322       .  A
N601        C605   1.345       .  A
N601       Cu609   2.074       .  S
N602        C603   1.345       .  A
N602       Cu608   2.074       .  S
C603        C604   1.386       .  A
C603        H606   1.082       .  S
C604        C605   1.385       .  A
C604       C3608   1.483       .  S
C605        H607   1.082       .  S
Cu608       N611   2.074       .  S
Cu609       N619   2.074       .  S
Cu610       N612   2.080       .  S
Cu610       N618   2.080       .  S
N611        N612   1.319       .  A
N611        C615   1.343       .  A
N612        C613   1.345       .  A
C613        C614   1.395       .  A
C613        H616   1.081       .  S
C614        C615   1.393       .  A
C614       C3653   1.503       .  S
C615        H617   1.078       .  S
N618        N619   1.324       .  A
N618        C622   1.346       .  A
N619        C620   1.346       .  A
C620        C621   1.380       .  A
C620        H623   1.082       .  S
C621        C622   1.382       .  A
C621       C3625   1.472       .  S
C622        H624   1.082       .  S
N625        N626   1.322       .  A
N625        C629   1.344       .  A
N625       Cu633   2.072       .  S
N626        C627   1.344       .  A
N626       Cu632   2.071       .  S
C627        C628   1.385       .  A
C627        H630   1.082       .  S
C628        C629   1.385       .  A
C628       C3566   1.482       .  S
C629        H631   1.082       .  S
Cu632       N635   2.071       .  S
Cu633       N643   2.072       .  S
Cu634       N636   2.073       .  S
Cu634       N642   2.073       .  S
N635        N636   1.322       .  A
N635        C639   1.345       .  A
N636        C637   1.344       .  A
C637        C638   1.383       .  A
C637        H640   1.082       .  S
C638        C639   1.382       .  A
C638       C3583   1.474       .  S
C639        H641   1.082       .  S
N642        N643   1.321       .  A
N642        C646   1.344       .  A
N643        C644   1.344       .  A
C644        C645   1.387       .  A
C644        H647   1.082       .  S
C645        C646   1.388       .  A
C645       C3594   1.488       .  S
C646        H648   1.081       .  S
N649        N650   1.322       .  A
N649        C653   1.346       .  A
N649       Cu657   2.078       .  S
N650        C651   1.344       .  A
N650       Cu656   2.071       .  S
C651        C652   1.385       .  A
C651        H654   1.082       .  S
C652        C653   1.387       .  A
C652       C3552   1.485       .  S
C653        H655   1.082       .  S
Cu656       N659   2.070       .  S
Cu657       N667   2.078       .  S
Cu658       N660   2.069       .  S
Cu658       N666   2.069       .  S
N659        N660   1.321       .  A
N659        C663   1.344       .  A
N660        C661   1.344       .  A
C661        C662   1.385       .  A
C661        H664   1.082       .  S
C662        C663   1.384       .  A
C662       C3538   1.480   1_556  S
C663        H665   1.082       .  S
N666        N667   1.323       .  A
N666        C670   1.344       .  A
N667        C668   1.346       .  A
C668        C669   1.382       .  A
C668        H671   1.082       .  S
C669        C670   1.380       .  A
C669       C3597   1.471       .  S
C670        H672   1.082       .  S
N673        N674   1.323       .  A
N673        C677   1.346       .  A
N673       Cu681   2.075       .  S
N674        C675   1.344       .  A
N674       Cu680   2.068       .  S
C675        C676   1.380       .  A
C675        H678   1.082       .  S
C676        C677   1.382       .  A
C676       C3569   1.471       .  S
C677        H679   1.082       .  S
Cu680       N683   2.068       .  S
Cu681       N691   2.075       .  S
Cu682       N684   2.069       .  S
Cu682       N690   2.069       .  S
N683        N684   1.321       .  A
N683        C687   1.344       .  A
N684        C685   1.343       .  A
C685        C686   1.385       .  A
C685        H688   1.082       .  S
C686        C687   1.385       .  A
C686       C3510   1.480       .  S
C687        H689   1.082       .  S
N690        N691   1.322       .  A
N690        C694   1.344       .  A
N691        C692   1.345       .  A
C692        C693   1.384       .  A
C692        H695   1.082       .  S
C693        C694   1.383       .  A
C693       C3524   1.477       .  S
C694        H696   1.081       .  S
N697        N698   1.322       .  A
N697        C701   1.346       .  A
N697       Cu705   2.077       .  S
N698        C699   1.344       .  A
N698       Cu704   2.073       .  S
C699        C700   1.385       .  A
C699        H702   1.082       .  S
C700        C701   1.387       .  A
C700       C3482   1.484   1_455  S
C701        H703   1.082       .  S
Cu704       N707   2.072       .  S
Cu705       N715   2.077       .  S
Cu706       N708   2.069       .  S
Cu706       N714   2.069       .  S
N707        N708   1.321       .  A
N707        C711   1.344       .  A
N708        C709   1.345       .  A
C709        C710   1.384       .  A
C709        H712   1.082       .  S
C710        C711   1.385       .  A
C710       C3496   1.480       .  S
C711        H713   1.082       .  S
N714        N715   1.323       .  A
N714        C718   1.344       .  A
N715        C716   1.345       .  A
C716        C717   1.381       .  A
C716        H719   1.082       .  S
C717        C718   1.380       .  A
C717       C3527   1.470       .  S
C718        H720   1.082       .  S
N721        N722   1.320       .  A
N721        C725   1.344       .  A
N721       Cu729   2.074       .  S
N722        C723   1.345       .  A
N722       Cu728   2.075       .  S
C723        C724   1.390       .  A
C723        H726   1.081       .  S
C724        C725   1.390       .  A
C724       C3485   1.494       .  S
C725        H727   1.081       .  S
Cu728       N731   2.076       .  S
Cu729       N739   2.075       .  S
Cu730       N732   2.079       .  S
Cu730       N738   2.080       .  S
N731        N732   1.321       .  A
N731        C735   1.344       .  A
N732        C733   1.345       .  A
C733        C734   1.389       .  A
C733        H736   1.082       .  S
C734        C735   1.388       .  A
C734       C4098   1.492   1_556  S
C735        H737   1.081       .  S
N738        N739   1.322       .  A
N738        C742   1.346       .  A
N739        C740   1.345       .  A
C740        C741   1.384       .  A
C740        H743   1.081       .  S
C741        C742   1.385       .  A
C741       C3468   1.481       .  S
C742        H744   1.082       .  S
N745        N746   1.322       .  A
N745        C749   1.347       .  A
N745       Cu753   2.085       .  S
N746        C747   1.344       .  A
N746       Cu752   2.073       .  S
C747        C748   1.385       .  A
C747        H750   1.082       .  S
C748        C749   1.388       .  A
C748       C3454   1.486       .  S
C749        H751   1.081       .  S
Cu752       N755   2.072       .  S
Cu753       N763   2.085       .  S
Cu754       N756   2.076       .  S
Cu754       N762   2.076       .  S
N755        N756   1.321       .  A
N755        C759   1.345       .  A
N756        C757   1.345       .  A
C757        C758   1.386       .  A
C757        H760   1.082       .  S
C758        C759   1.386       .  A
C758       C3793   1.484       .  S
C759        H761   1.082       .  S
N762        N763   1.320       .  A
N762        C766   1.345       .  A
N763        C764   1.345       .  A
C764        C765   1.393       .  A
C764        H767   1.081       .  S
C765        C766   1.392       .  A
C765       C3471   1.501       .  S
C766        H768   1.079       .  S
N769        N770   1.322       .  A
N769        C773   1.346       .  A
N769       Cu777   2.075       .  S
N770        C771   1.344       .  A
N770       Cu776   2.075       .  S
C771        C772   1.385       .  A
C771        H774   1.082       .  S
C772        C773   1.385       .  A
C772       C3426   1.482       .  S
C773        H775   1.082       .  S
Cu776       N779   2.075       .  S
Cu777       N787   2.075       .  S
Cu778       N780   2.073       .  S
Cu778       N786   2.074       .  S
N779        N780   1.322       .  A
N779        C783   1.345       .  A
N780        C781   1.344       .  A
C781        C782   1.384       .  A
C781        H784   1.082       .  S
C782        C783   1.384       .  A
C782       C3933   1.479       .  S
C783        H785   1.082       .  S
N786        N787   1.322       .  A
N786        C790   1.345       .  A
N787        C788   1.345       .  A
C788        C789   1.384       .  A
C788        H791   1.082       .  S
C789        C790   1.385       .  A
C789       C3440   1.480       .  S
C790        H792   1.082       .  S
N793        N794   1.321       .  A
N793        C797   1.344       .  A
N793       Cu801   2.076       .  S
N794        C795   1.345       .  A
N794       Cu800   2.073       .  S
C795        C796   1.387       .  A
C795        H798   1.081       .  S
C796        C797   1.387       .  A
C796       C3398   1.487       .  S
C797        H799   1.082       .  S
Cu800       N803   2.073       .  S
Cu801       N811   2.076       .  S
Cu802       N804   2.071       .  S
Cu802       N810   2.071       .  S
N803        N804   1.323       .  A
N803        C807   1.345       .  A
N804        C805   1.345       .  A
C805        C806   1.380       .  A
C805        H808   1.082       .  S
C806        C807   1.381       .  A
C806       C3415   1.470       .  S
C807        H809   1.082       .  S
N810        N811   1.323       .  A
N810        C814   1.345       .  A
N811        C812   1.345       .  A
C812        C813   1.381       .  A
C812        H815   1.082       .  S
C813        C814   1.380       .  A
C813       C3443   1.471       .  S
C814        H816   1.082       .  S
N817        N818   1.322       .  A
N817        C821   1.345       .  A
N817       Cu825   2.077       .  S
N818        C819   1.345       .  A
N818       Cu824   2.075       .  S
C819        C820   1.386       .  A
C819        H822   1.082       .  S
C820        C821   1.386       .  A
C820       C3370   1.485       .  S
C821        H823   1.082       .  S
Cu824       N827   2.075       .  S
Cu825       N835   2.077       .  S
Cu826       N828   2.076       .  S
Cu826       N834   2.077       .  S
N827        N828   1.319       .  A
N827        C831   1.344       .  A
N828        C829   1.344       .  A
C829        C830   1.392       .  A
C829        H832   1.081       .  S
C830        C831   1.392       .  A
C830       C3555   1.499       .  S
C831        H833   1.079       .  S
N834        N835   1.323       .  A
N834        C838   1.346       .  A
N835        C836   1.345       .  A
C836        C837   1.384       .  A
C836        H839   1.082       .  S
C837        C838   1.385       .  A
C837       C3384   1.481       .  S
C838        H840   1.082       .  S
N841        N842   1.322       .  A
N841        C845   1.346       .  A
N841       Cu849   2.073       .  S
N842        C843   1.346       .  A
N842       Cu848   2.079       .  S
C843        C844   1.385       .  A
C843        H846   1.082       .  S
C844        C845   1.383       .  A
C844       C3356   1.479       .  S
C845        H847   1.082       .  S
Cu848       N851   2.079       .  S
Cu849       N859   2.073       .  S
Cu850       N852   2.082       .  S
Cu850       N858   2.082       .  S
N851        N852   1.321       .  A
N851        C855   1.345       .  A
N852        C853   1.346       .  A
C853        C854   1.391       .  A
C853        H856   1.081       .  S
C854        C855   1.391       .  A
C854       C3457   1.497       .  S
C855        H857   1.080       .  S
N858        N859   1.319       .  A
N858        C862   1.345       .  A
N859        C860   1.342       .  A
C860        C861   1.394       .  A
C860        H863   1.078       .  S
C861        C862   1.396       .  A
C861       C3387   1.506       .  S
C862        H864   1.081       .  S
N865        N866   1.322       .  A
N865        C869   1.346       .  A
N865       Cu873   2.080       .  S
N866        C867   1.343       .  A
N866       Cu872   2.068       .  S
C867        C868   1.384       .  A
C867        H870   1.082       .  S
C868        C869   1.387       .  A
C868       C3314   1.484       .  S
C869        H871   1.082       .  S
Cu872       N875   2.068       .  S
Cu873       N883   2.080       .  S
Cu874       N876   2.072       .  S
Cu874       N882   2.073       .  S
N875        N876   1.321       .  A
N875        C879   1.344       .  A
N876        C877   1.345       .  A
C877        C878   1.384       .  A
C877        H880   1.082       .  S
C878        C879   1.384       .  A
C878       C3328   1.479       .  S
C879        H881   1.082       .  S
N882        N883   1.324       .  A
N882        C886   1.344       .  A
N883        C884   1.347       .  A
C884        C885   1.382       .  A
C884        H887   1.082       .  S
C885        C886   1.381       .  A
C885       C3342   1.473       .  S
C886        H888   1.082       .  S
N889        N890   1.323       .  A
N889        C893   1.346       .  A
N889       Cu897   2.082       .  S
N890        C891   1.345       .  A
N890       Cu896   2.078       .  S
C891        C892   1.386       .  A
C891        H894   1.082       .  S
C892        C893   1.387       .  A
C892       C3359   1.487       .  S
C893        H895   1.082       .  S
Cu896       N899   2.078       .  S
Cu897       N907   2.081       .  S
Cu898       N900   2.068       .  S
Cu898       N906   2.068       .  S
N899        N900   1.319       .  A
N899        C903   1.344       .  A
N900        C901   1.343       .  A
C901        C902   1.391       .  A
C901        H904   1.079       .  S
C902        C903   1.394       .  A
C902       C3429   1.499       .  S
C903        H905   1.081       .  S
N906        N907   1.320       .  A
N906        C910   1.343       .  A
N907        C908   1.345       .  A
C908        C909   1.391       .  A
C908        H911   1.081       .  S
C909        C910   1.388       .  A
C909       C3345   1.493       .  S
C910        H912   1.081       .  S
N913        N914   1.323       .  A
N913        C917   1.345       .  A
N913       Cu921   2.072       .  S
N914        C915   1.345       .  A
N914       Cu920   2.076       .  S
C915        C916   1.382       .  A
C915        H918   1.082       .  S
C916        C917   1.382       .  A
C916       C3289   1.475       .  S
C917        H919   1.082       .  S
Cu920       N923   2.076       .  S
Cu921       N931   2.072       .  S
Cu922       N924   2.069       .  S
Cu922       N930   2.070       .  S
N923        N924   1.319       .  A
N923        C927   1.343       .  A
N924        C925   1.343       .  A
C925        C926   1.392       .  A
C925        H928   1.078       .  S
C926        C927   1.393       .  A
C926       C4199   1.499       .  S
C927        H929   1.081       .  S
N930        N931   1.321       .  A
N930        C934   1.343       .  A
N931        C932   1.345       .  A
C932        C933   1.388       .  A
C932        H935   1.082       .  S
C933        C934   1.387       .  A
C933       C3300   1.486       .  S
C934        H936   1.081       .  S
N937        N938   1.320       .  A
N937        C941   1.345       .  A
N937       Cu945   2.078       .  S
N938        C939   1.343       .  A
N938       Cu944   2.075       .  S
C939        C940   1.390       .  A
C939        H942   1.081       .  S
C940        C941   1.391       .  A
C940       C3611   1.496       .  S
C941        H943   1.080       .  S
Cu944       N947   2.075       .  S
Cu945       N955   2.078       .  S
Cu946       N948   2.067       .  S
Cu946       N954   2.067       .  S
N947        N948   1.321       .  A
N947        C951   1.344       .  A
N948        C949   1.345       .  A
C949        C950   1.384       .  A
C949        H952   1.082       .  S
C950        C951   1.386       .  A
C950       C3272   1.480       .  S
C951        H953   1.082       .  S
N954        N955   1.323       .  A
N954        C958   1.344       .  A
N955        C956   1.346       .  A
C956        C957   1.382       .  A
C956        H959   1.082       .  S
C957        C958   1.380       .  A
C957       C3303   1.471       .  S
C958        H960   1.082       .  S
N961        N962   1.321       .  A
N961        C965   1.345       .  A
N961       Cu969   2.072       .  S
N962        C963   1.344       .  A
N962       Cu968   2.074       .  S
C963        C964   1.386       .  A
C963        H966   1.082       .  S
C964        C965   1.386       .  A
C964       C3244   1.485       .  S
C965        H967   1.082       .  S
Cu968       N971   2.073       .  S
Cu969       N979   2.072       .  S
Cu970       N972   2.070       .  S
Cu970       N978   2.071       .  S
N971        N972   1.320       .  A
N971        C975   1.343       .  A
N972        C973   1.344       .  A
C973        C974   1.390       .  A
C973        H976   1.080       .  S
C974        C975   1.390       .  A
C974       C3275   1.493       .  S
C975        H977   1.081       .  S
N978        N979   1.322       .  A
N978        C982   1.344       .  A
N979        C980   1.345       .  A
C980        C981   1.385       .  A
C980        H983   1.082       .  S
C981        C982   1.384       .  A
C981       C3258   1.480       .  S
C982        H984   1.082       .  S
N985        N986   1.320       .  A
N985        C989   1.343       .  A
N985       Cu993   2.068       .  S
N986        C987   1.344       .  A
N986       Cu992   2.076       .  S
C987        C988   1.391       .  A
C987        H990   1.081       .  S
C988        C989   1.389       .  A
C988       C3331   1.493       .  S
C989        H991   1.080       .  S
Cu992       N995   2.076       .  S
Cu993      N1003   2.068       .  S
Cu994       N996   2.070       .  S
Cu994      N1002   2.070       .  S
N995        N996   1.320       .  A
N995        C999   1.344       .  A
N996        C997   1.344       .  A
C997        C998   1.388       .  A
C997       H1000   1.081       .  S
C998        C999   1.389       .  A
C998       C3877   1.491       .  S
C999       H1001   1.081       .  S
N1002      N1003   1.323       .  A
N1002      C1006   1.344       .  A
N1003      C1004   1.345       .  A
C1004      C1005   1.380       .  A
C1004      H1007   1.082       .  S
C1005      C1006   1.380       .  A
C1005      C3261   1.468       .  S
C1006      H1008   1.082       .  S
N1009      N1010   1.323       .  A
N1009      C1013   1.345       .  A
N1009     Cu1017   2.073       .  S
N1010      C1011   1.346       .  A
N1010     Cu1016   2.077       .  S
C1011      C1012   1.382       .  A
C1011      H1014   1.082       .  S
C1012      C1013   1.381       .  A
C1012      C3216   1.472       .  S
C1013      H1015   1.082       .  S
Cu1016     N1019   2.077       .  S
Cu1017     N1027   2.072       .  S
Cu1018     N1020   2.073       .  S
Cu1018     N1026   2.073       .  S
N1019      N1020   1.323       .  A
N1019      C1023   1.346       .  A
N1020      C1021   1.345       .  A
C1021      C1022   1.381       .  A
C1021      H1024   1.082       .  S
C1022      C1023   1.381       .  A
C1022      C4115   1.472       .  S
C1023      H1025   1.082       .  S
N1026      N1027   1.323       .  A
N1026      C1030   1.344       .  A
N1027      C1028   1.346       .  A
C1028      C1029   1.381       .  A
C1028      H1031   1.082       .  S
C1029      C1030   1.381       .  A
C1029      C3230   1.470       .  S
C1030      H1032   1.082       .  S
N1033      N1034   1.319       .  A
N1033      C1037   1.345       .  A
N1033     Cu1041   2.069       .  S
N1034      C1035   1.342       .  A
N1034     Cu1040   2.069       .  S
C1035      C1036   1.388       .  A
C1035      H1038   1.082       .  S
C1036      C1037   1.389       .  A
C1036      C3202   1.490       .  S
C1037      H1039   1.081       .  S
Cu1040     N1043   2.069       .  S
Cu1041     N1051   2.069       .  S
Cu1042     N1044   2.082       .  S
Cu1042     N1050   2.083       .  S
N1043      N1044   1.320       .  A
N1043      C1047   1.343       .  A
N1044      C1045   1.346       .  A
C1045      C1046   1.391       .  A
C1045      H1048   1.081       .  S
C1046      C1047   1.388       .  A
C1046      C3818   1.494       .  S
C1047      H1049   1.081       .  S
N1050      N1051   1.322       .  A
N1050      C1054   1.346       .  A
N1051      C1052   1.343       .  A
C1052      C1053   1.385       .  A
C1052      H1055   1.081       .  S
C1053      C1054   1.388       .  A
C1053      C3233   1.487       .  S
C1054      H1056   1.082       .  S
N1057      N1058   1.322       .  A
N1057      C1061   1.344       .  A
N1057     Cu1065   2.071       .  S
N1058      C1059   1.344       .  A
N1058     Cu1064   2.068       .  S
C1059      C1060   1.381       .  A
C1059      H1062   1.082       .  S
C1060      C1061   1.382       .  A
C1060      C3513   1.471       .  S
C1061      H1063   1.082       .  S
Cu1064     N1067   2.068       .  S
Cu1065     N1075   2.071       .  S
Cu1066     N1068   2.069       .  S
Cu1066     N1074   2.069       .  S
N1067      N1068   1.321       .  A
N1067      C1071   1.344       .  A
N1068      C1069   1.344       .  A
C1069      C1070   1.386       .  A
C1069      H1072   1.082       .  S
C1070      C1071   1.386       .  A
C1070      C3174   1.484       .  S
C1071      H1073   1.082       .  S
N1074      N1075   1.321       .  A
N1074      C1078   1.344       .  A
N1075      C1076   1.344       .  A
C1076      C1077   1.386       .  A
C1076      H1079   1.082       .  S
C1077      C1078   1.386       .  A
C1077      C3188   1.483       .  S
C1078      H1080   1.082       .  S
N1081      N1082   1.322       .  A
N1081      C1085   1.345       .  A
N1081     Cu1089   2.071       .  S
N1082      C1083   1.344       .  A
N1082     Cu1088   2.070       .  S
C1083      C1084   1.380       .  A
C1083      H1086   1.082       .  S
C1084      C1085   1.382       .  A
C1084      C3146   1.470       .  S
C1085      H1087   1.082       .  S
Cu1088     N1091   2.070       .  S
Cu1089     N1099   2.071       .  S
Cu1090     N1092   2.071       .  S
Cu1090     N1098   2.071       .  S
N1091      N1092   1.321       .  A
N1091      C1095   1.344       .  A
N1092      C1093   1.344       .  A
C1093      C1094   1.388       .  A
C1093      H1096   1.082       .  S
C1094      C1095   1.388       .  A
C1094      C3160   1.488       .  S
C1095      H1097   1.081       .  S
N1098      N1099   1.321       .  A
N1098      C1102   1.345       .  A
N1099      C1100   1.343       .  A
C1100      C1101   1.386       .  A
C1100      H1103   1.082       .  S
C1101      C1102   1.386       .  A
C1101      C3191   1.484       .  S
C1102      H1104   1.082       .  S
N1105      N1106   1.323       .  A
N1105      C1109   1.345       .  A
N1105     Cu1113   2.071       .  S
N1106      C1107   1.345       .  A
N1106     Cu1112   2.072       .  S
C1107      C1108   1.380       .  A
C1107      H1110   1.082       .  S
C1108      C1109   1.381       .  A
C1108      C3286   1.470   1_455  S
C1109      H1111   1.082       .  S
Cu1112     N1115   2.071       .  S
Cu1113     N1123   2.071       .  S
Cu1114     N1116   2.068       .  S
Cu1114     N1122   2.068       .  S
N1115      N1116   1.322       .  A
N1115      C1119   1.344       .  A
N1116      C1117   1.344       .  A
C1117      C1118   1.384       .  A
C1117      H1120   1.082       .  S
C1118      C1119   1.384       .  A
C1118      C3163   1.478       .  S
C1119      H1121   1.082       .  S
N1122      N1123   1.323       .  A
N1122      C1126   1.344       .  A
N1123      C1124   1.344       .  A
C1124      C1125   1.380       .  A
C1124      H1127   1.082       .  S
C1125      C1126   1.381       .  A
C1125      C3132   1.469       .  S
C1126      H1128   1.082       .  S
N1129      N1130   1.321       .  A
N1129      C1133   1.344       .  A
N1129     Cu1137   2.068       .  S
N1130      C1131   1.342       .  A
N1130     Cu1136   2.063       .  S
C1131      C1132   1.382       .  A
C1131      H1134   1.082       .  S
C1132      C1133   1.384       .  A
C1132      C3118   1.475       .  S
C1133      H1135   1.082       .  S
Cu1136     N1139   2.063       .  S
Cu1137     N1147   2.068       .  S
Cu1138     N1140   2.071       .  S
Cu1138     N1146   2.071       .  S
N1139      N1140   1.322       .  A
N1139      C1143   1.344       .  A
N1140      C1141   1.344       .  A
C1141      C1142   1.381       .  A
C1141      H1144   1.082       .  S
C1142      C1143   1.380       .  A
C1142      C3863   1.469       .  S
C1143      H1145   1.082       .  S
N1146      N1147   1.322       .  A
N1146      C1150   1.344       .  A
N1147      C1148   1.344       .  A
C1148      C1149   1.383       .  A
C1148      H1151   1.082       .  S
C1149      C1150   1.383       .  A
C1149      C3135   1.475       .  S
C1150      H1152   1.082       .  S
N1153      N1154   1.320       .  A
N1153      C1157   1.344       .  A
N1153     Cu1161   2.074       .  S
N1154      C1155   1.343       .  A
N1154     Cu1160   2.066       .  S
C1155      C1156   1.386       .  A
C1155      H1158   1.081       .  S
C1156      C1157   1.388       .  A
C1156      C3093   1.487       .  S
C1157      H1159   1.082       .  S
Cu1160     N1163   2.066       .  S
Cu1161     N1171   2.074       .  S
Cu1162     N1164   2.073       .  S
Cu1162     N1170   2.073       .  S
N1163      N1164   1.322       .  A
N1163      C1167   1.344       .  A
N1164      C1165   1.345       .  A
C1165      C1166   1.383       .  A
C1165      H1168   1.082       .  S
C1166      C1167   1.380       .  A
C1166      C3905   1.472       .  S
C1167      H1169   1.082       .  S
N1170      N1171   1.321       .  A
N1170      C1174   1.344       .  A
N1171      C1172   1.344       .  A
C1172      C1173   1.390       .  A
C1172      H1175   1.081       .  S
C1173      C1174   1.389       .  A
C1173      C3104   1.493       .  S
C1174      H1176   1.080       .  S
N1177      N1178   1.319       .  A
N1177      C1181   1.344       .  A
N1177     Cu1185   2.072       .  S
N1178      C1179   1.342       .  A
N1178     Cu1184   2.069       .  S
C1179      C1180   1.390       .  A
C1179      H1182   1.081       .  S
C1180      C1181   1.391       .  A
C1180      C3177   1.495       .  S
C1181      H1183   1.080       .  S
Cu1184     N1187   2.069       .  S
Cu1185     N1195   2.072       .  S
Cu1186     N1188   2.075       .  S
Cu1186     N1194   2.075       .  S
N1187      N1188   1.322       .  A
N1187      C1191   1.344       .  A
N1188      C1189   1.346       .  A
C1189      C1190   1.385       .  A
C1189      H1192   1.082       .  S
C1190      C1191   1.382       .  A
C1190      C3076   1.478       .  S
C1191      H1193   1.082       .  S
N1194      N1195   1.322       .  A
N1194      C1198   1.345       .  A
N1195      C1196   1.345       .  A
C1196      C1197   1.383       .  A
C1196      H1199   1.081       .  S
C1197      C1198   1.384       .  A
C1197      C3107   1.477       .  S
C1198      H1200   1.082       .  S
N1201      N1202   1.322       .  A
N1201      C1205   1.344       .  A
N1201     Cu1209   2.068       .  S
N1202      C1203   1.344       .  A
N1202     Cu1208   2.069       .  S
C1203      C1204   1.383       .  A
C1203      H1206   1.082       .  S
C1204      C1205   1.382       .  A
C1204      C3048   1.474       .  S
C1205      H1207   1.082       .  S
Cu1208     N1211   2.069       .  S
Cu1209     N1219   2.068       .  S
Cu1210     N1212   2.078       .  S
Cu1210     N1218   2.079       .  S
N1211      N1212   1.323       .  A
N1211      C1215   1.344       .  A
N1212      C1213   1.346       .  A
C1213      C1214   1.383       .  A
C1213      H1216   1.082       .  S
C1214      C1215   1.380       .  A
C1214      C3034   1.473       .  S
C1215      H1217   1.082       .  S
N1218      N1219   1.323       .  A
N1218      C1222   1.346       .  A
N1219      C1220   1.344       .  A
C1220      C1221   1.381       .  A
C1220      H1223   1.082       .  S
C1221      C1222   1.382       .  A
C1221      C3062   1.473       .  S
C1222      H1224   1.082       .  S
N1225      N1226   1.322       .  A
N1225      C1229   1.345       .  A
N1225     Cu1233   2.072       .  S
N1226      C1227   1.344       .  A
N1226     Cu1232   2.070       .  S
C1227      C1228   1.383       .  A
C1227      H1230   1.082       .  S
C1228      C1229   1.384       .  A
C1228      C3020   1.479       .  S
C1229      H1231   1.082       .  S
Cu1232     N1235   2.070       .  S
Cu1233     N1243   2.072       .  S
Cu1234     N1236   2.075       .  S
Cu1234     N1242   2.075       .  S
N1235      N1236   1.322       .  A
N1235      C1239   1.344       .  A
N1236      C1237   1.344       .  A
C1237      C1238   1.386       .  A
C1237      H1240   1.082       .  S
C1238      C1239   1.385       .  A
C1238      C3580   1.483       .  S
C1239      H1241   1.082       .  S
N1242      N1243   1.322       .  A
N1242      C1246   1.345       .  A
N1243      C1244   1.344       .  A
C1244      C1245   1.383       .  A
C1244      H1247   1.082       .  S
C1245      C1246   1.385       .  A
C1245      C3065   1.479       .  S
C1246      H1248   1.082       .  S
N1249      N1250   1.320       .  A
N1249      C1253   1.345       .  A
N1249     Cu1257   2.073       .  S
N1250      C1251   1.342       .  A
N1250     Cu1256   2.072       .  S
C1251      C1252   1.389       .  A
C1251      H1254   1.081       .  S
C1252      C1253   1.390       .  A
C1252      C2992   1.492       .  S
C1253      H1255   1.080       .  S
Cu1256     N1259   2.072       .  S
Cu1257     N1267   2.074       .  S
Cu1258     N1260   2.071       .  S
Cu1258     N1266   2.071       .  S
N1259      N1260   1.322       .  A
N1259      C1263   1.345       .  A
N1260      C1261   1.345       .  A
C1261      C1262   1.384       .  A
C1261      H1264   1.082       .  S
C1262      C1263   1.384       .  A
C1262      C3412   1.479       .  S
C1263      H1265   1.082       .  S
N1266      N1267   1.323       .  A
N1266      C1270   1.345       .  A
N1267      C1268   1.345       .  A
C1268      C1269   1.382       .  A
C1268      H1271   1.082       .  S
C1269      C1270   1.381       .  A
C1269      C3006   1.474       .  S
C1270      H1272   1.082       .  S
N1273      N1274   1.323       .  A
N1273      C1277   1.345       .  A
N1273     Cu1281   2.069       .  S
N1274      C1275   1.345       .  A
N1274     Cu1280   2.073       .  S
C1275      C1276   1.381       .  A
C1275      H1278   1.082       .  S
C1276      C1277   1.380       .  A
C1276      C3023   1.470       .  S
C1277      H1279   1.082       .  S
Cu1280     N1283   2.073       .  S
Cu1281     N1291   2.069       .  S
Cu1282     N1284   2.075       .  S
Cu1282     N1290   2.075       .  S
N1283      N1284   1.321       .  A
N1283      C1287   1.344       .  A
N1284      C1285   1.345       .  A
C1285      C1286   1.388       .  A
C1285      H1288   1.082       .  S
C1286      C1287   1.387       .  A
C1286      C3079   1.488       .  S
C1287      H1289   1.081       .  S
N1290      N1291   1.322       .  A
N1290      C1294   1.345       .  A
N1291      C1292   1.344       .  A
C1292      C1293   1.382       .  A
C1292      H1295   1.082       .  S
C1293      C1294   1.383       .  A
C1293      C3009   1.475       .  S
C1294      H1296   1.082       .  S
N1297      N1298   1.322       .  A
N1297      C1301   1.345       .  A
N1297     Cu1305   2.071       .  S
N1298      C1299   1.343       .  A
N1298     Cu1304   2.067       .  S
C1299      C1300   1.381       .  A
C1299      H1302   1.082       .  S
C1300      C1301   1.382       .  A
C1300      C2964   1.472       .  S
C1301      H1303   1.082       .  S
Cu1304     N1307   2.067       .  S
Cu1305     N1315   2.071       .  S
Cu1306     N1308   2.070       .  S
Cu1306     N1314   2.070       .  S
N1307      N1308   1.322       .  A
N1307      C1311   1.344       .  A
N1308      C1309   1.344       .  A
C1309      C1310   1.380       .  A
C1309      H1312   1.082       .  S
C1310      C1311   1.380       .  A
C1310      C3051   1.468       .  S
C1311      H1313   1.082       .  S
N1314      N1315   1.322       .  A
N1314      C1318   1.345       .  A
N1315      C1316   1.344       .  A
C1316      C1317   1.384       .  A
C1316      H1319   1.082       .  S
C1317      C1318   1.384       .  A
C1317      C2978   1.478       .  S
C1318      H1320   1.081       .  S
N1321      N1322   1.321       .  A
N1321      C1325   1.344       .  A
N1321     Cu1329   2.069       .  S
N1322      C1323   1.345       .  A
N1322     Cu1328   2.069       .  S
C1323      C1324   1.383       .  A
C1323      H1326   1.082       .  S
C1324      C1325   1.383       .  A
C1324      C2936   1.475       .  S
C1325      H1327   1.082       .  S
Cu1328     N1331   2.069       .  S
Cu1329     N1339   2.069       .  S
Cu1330     N1332   2.074       .  S
Cu1330     N1338   2.074       .  S
N1331      N1332   1.323       .  A
N1331      C1335   1.344       .  A
N1332      C1333   1.345       .  A
C1333      C1334   1.383       .  A
C1333      H1336   1.082       .  S
C1334      C1335   1.381       .  A
C1334      C2950   1.474       .  S
C1335      H1337   1.082       .  S
N1338      N1339   1.320       .  A
N1338      C1342   1.344       .  A
N1339      C1340   1.343       .  A
C1340      C1341   1.389       .  A
C1340      H1343   1.080       .  S
C1341      C1342   1.390       .  A
C1341      C2981   1.492       .  S
C1342      H1344   1.081       .  S
N1345      N1346   1.323       .  A
N1345      C1349   1.345       .  A
N1345     Cu1353   2.076       .  S
N1346      C1347   1.344       .  A
N1346     Cu1352   2.071       .  S
C1347      C1348   1.381       .  A
C1347      H1350   1.082       .  S
C1348      C1349   1.383       .  A
C1348      C2908   1.474       .  S
C1349      H1351   1.082       .  S
Cu1352     N1355   2.071       .  S
Cu1353     N1363   2.075       .  S
Cu1354     N1356   2.068       .  S
Cu1354     N1362   2.068       .  S
N1355      N1356   1.322       .  A
N1355      C1359   1.344       .  A
N1356      C1357   1.345       .  A
C1357      C1358   1.381       .  A
C1357      H1360   1.082       .  S
C1358      C1359   1.381       .  A
C1358      C3541   1.470       .  S
C1359      H1361   1.082       .  S
N1362      N1363   1.320       .  A
N1362      C1366   1.342       .  A
N1363      C1364   1.345       .  A
C1364      C1365   1.391       .  A
C1364      H1367   1.080       .  S
C1365      C1366   1.389       .  A
C1365      C2922   1.493       .  S
C1366      H1368   1.081       .  S
N1369      N1370   1.322       .  A
N1369      C1373   1.346       .  A
N1369     Cu1377   2.075       .  S
N1370      C1371   1.343       .  A
N1370     Cu1376   2.069       .  S
C1371      C1372   1.384       .  A
C1371      H1374   1.082       .  S
C1372      C1373   1.385       .  A
C1372      C2894   1.481       .  S
C1373      H1375   1.082       .  S
Cu1376     N1379   2.068       .  S
Cu1377     N1387   2.075       .  S
Cu1378     N1380   2.069       .  S
Cu1378     N1386   2.069       .  S
N1379      N1380   1.320       .  A
N1379      C1383   1.343       .  A
N1380      C1381   1.344       .  A
C1381      C1382   1.387       .  A
C1381      H1384   1.082       .  S
C1382      C1383   1.387       .  A
C1382      C2953   1.485       .  S
C1383      H1385   1.081       .  S
N1386      N1387   1.322       .  A
N1386      C1390   1.344       .  A
N1387      C1388   1.345       .  A
C1388      C1389   1.384       .  A
C1388      H1391   1.082       .  S
C1389      C1390   1.382       .  A
C1389      C2925   1.476       .  S
C1390      H1392   1.081       .  S
N1393      N1394   1.323       .  A
N1393      C1397   1.347       .  A
N1393     Cu1401   2.078       .  S
N1394      C1395   1.344       .  A
N1394     Cu1400   2.072       .  S
C1395      C1396   1.382       .  A
C1395      H1398   1.082       .  S
C1396      C1397   1.384       .  A
C1396      C2869   1.476       .  S
C1397      H1399   1.082       .  S
Cu1400     N1403   2.072       .  S
Cu1401     N1411   2.078       .  S
Cu1402     N1404   2.069       .  S
Cu1402     N1410   2.070       .  S
N1403      N1404   1.321       .  A
N1403      C1407   1.344       .  A
N1404      C1405   1.344       .  A
C1405      C1406   1.384       .  A
C1405      H1408   1.082       .  S
C1406      C1407   1.385       .  A
C1406      C2852   1.481       .  S
C1407      H1409   1.082       .  S
N1410      N1411   1.322       .  A
N1410      C1414   1.344       .  A
N1411      C1412   1.345       .  A
C1412      C1413   1.386       .  A
C1412      H1415   1.082       .  S
C1413      C1414   1.384       .  A
C1413      C2880   1.482       .  S
C1414      H1416   1.082       .  S
N1417      N1418   1.320       .  A
N1417      C1421   1.345       .  A
N1417     Cu1425   2.074       .  S
N1418      C1419   1.343       .  A
N1418     Cu1424   2.075       .  S
C1419      C1420   1.390       .  A
C1419      H1422   1.081       .  S
C1420      C1421   1.390       .  A
C1420      C2824   1.494       .  S
C1421      H1423   1.080       .  S
Cu1424     N1427   2.075       .  S
Cu1425     N1435   2.075       .  S
Cu1426     N1428   2.072       .  S
Cu1426     N1434   2.072       .  S
N1427      N1428   1.322       .  A
N1427      C1431   1.345       .  A
N1428      C1429   1.345       .  A
C1429      C1430   1.384       .  A
C1429      H1432   1.082       .  S
C1430      C1431   1.385       .  A
C1430      C2841   1.480       .  S
C1431      H1433   1.082       .  S
N1434      N1435   1.321       .  A
N1434      C1438   1.344       .  A
N1435      C1436   1.345       .  A
C1436      C1437   1.387       .  A
C1436      H1439   1.081       .  S
C1437      C1438   1.386       .  A
C1437      C2883   1.486       .  S
C1438      H1440   1.082       .  S
N1441      N1442   1.322       .  A
N1441      C1445   1.345       .  A
N1441     Cu1449   2.078       .  S
N1442      C1443   1.345       .  A
N1442     Cu1448   2.082       .  S
C1443      C1444   1.390       .  A
C1443      H1446   1.081       .  S
C1444      C1445   1.388       .  A
C1444      C2796   1.493       .  S
C1445      H1447   1.082       .  S
Cu1448     N1451   2.081       .  S
Cu1449     N1459   2.078       .  S
Cu1450     N1452   2.066       .  S
Cu1450     N1458   2.066       .  S
N1451      N1452   1.319       .  A
N1451      C1455   1.345       .  A
N1452      C1453   1.343       .  A
C1453      C1454   1.389       .  A
C1453      H1456   1.080       .  S
C1454      C1455   1.393       .  A
C1454      C3317   1.496       .  S
C1455      H1457   1.081       .  S
N1458      N1459   1.321       .  A
N1458      C1462   1.344       .  A
N1459      C1460   1.346       .  A
C1460      C1461   1.385       .  A
C1460      H1463   1.082       .  S
C1461      C1462   1.382       .  A
C1461      C2810   1.477       .  S
C1462      H1464   1.081       .  S
N1465      N1466   1.321       .  A
N1465      C1469   1.344       .  A
N1465     Cu1473   2.072       .  S
N1466      C1467   1.344       .  A
N1466     Cu1472   2.077       .  S
C1467      C1468   1.388       .  A
C1467      H1470   1.082       .  S
C1468      C1469   1.388       .  A
C1468      C4283   1.489       .  S
C1469      H1471   1.081       .  S
Cu1472     N1475   2.077       .  S
Cu1473     N1483   2.072       .  S
Cu1474     N1476   2.072       .  S
Cu1474     N1482   2.072       .  S
N1475      N1476   1.319       .  A
N1475      C1479   1.344       .  A
N1476      C1477   1.343       .  A
C1477      C1478   1.392       .  A
C1477      H1480   1.081       .  S
C1478      C1479   1.393       .  A
C1478      C2782   1.499       .  S
C1479      H1481   1.079       .  S
N1482      N1483   1.322       .  A
N1482      C1486   1.346       .  A
N1483      C1484   1.344       .  A
C1484      C1485   1.382       .  A
C1484      H1487   1.082       .  S
C1485      C1486   1.383       .  A
C1485      C2813   1.474       .  S
C1486      H1488   1.082       .  S
N1489      N1490   1.322       .  A
N1489      C1493   1.344       .  A
N1489     Cu1497   2.074       .  S
N1490      C1491   1.346       .  A
N1490     Cu1496   2.074       .  S
C1491      C1492   1.383       .  A
C1491      H1494   1.082       .  S
C1492      C1493   1.383       .  A
C1492      C3401   1.476       .  S
C1493      H1495   1.082       .  S
Cu1496     N1499   2.074       .  S
Cu1497     N1507   2.074       .  S
Cu1498     N1500   2.070       .  S
Cu1498     N1506   2.070       .  S
N1499      N1500   1.321       .  A
N1499      C1503   1.343       .  A
N1500      C1501   1.344       .  A
C1501      C1502   1.388       .  A
C1501      H1504   1.081       .  S
C1502      C1503   1.388       .  A
C1502      C3695   1.489       .  S
C1503      H1505   1.082       .  S
N1506      N1507   1.322       .  A
N1506      C1510   1.344       .  A
N1507      C1508   1.345       .  A
C1508      C1509   1.385       .  A
C1508      H1511   1.082       .  S
C1509      C1510   1.385       .  A
C1509      C2768   1.482       .  S
C1510      H1512   1.082       .  S
N1513      N1514   1.321       .  A
N1513      C1517   1.347       .  A
N1513     Cu1521   2.077       .  S
N1514      C1515   1.342       .  A
N1514     Cu1520   2.063       .  S
C1515      C1516   1.384       .  A
C1515      H1518   1.082       .  S
C1516      C1517   1.388       .  A
C1516      C2785   1.484       .  S
C1517      H1519   1.082       .  S
Cu1520     N1523   2.063       .  S
Cu1521     N1531   2.078       .  S
Cu1522     N1524   2.075       .  S
Cu1522     N1530   2.076       .  S
N1523      N1524   1.319       .  A
N1523      C1527   1.342       .  A
N1524      C1525   1.344       .  A
C1525      C1526   1.392       .  A
C1525      H1528   1.081       .  S
C1526      C1527   1.389       .  A
C1526      C2754   1.494       .  S
C1527      H1529   1.079       .  S
N1530      N1531   1.324       .  A
N1530      C1534   1.345       .  A
N1531      C1532   1.345       .  A
C1532      C1533   1.380       .  A
C1532      H1535   1.082       .  S
C1533      C1534   1.380       .  A
C1533      C2771   1.470       .  S
C1534      H1536   1.082       .  S
N1537      N1538   1.321       .  A
N1537      C1541   1.344       .  A
N1537     Cu1545   2.066       .  S
N1538      C1539   1.343       .  A
N1538     Cu1544   2.069       .  S
C1539      C1540   1.385       .  A
C1539      H1542   1.082       .  S
C1540      C1541   1.385       .  A
C1540      C2967   1.481       .  S
C1541      H1543   1.082       .  S
Cu1544     N1547   2.069       .  S
Cu1545     N1555   2.066       .  S
Cu1546     N1548   2.074       .  S
Cu1546     N1554   2.074       .  S
N1547      N1548   1.323       .  A
N1547      C1551   1.344       .  A
N1548      C1549   1.345       .  A
C1549      C1550   1.382       .  A
C1549      H1552   1.082       .  S
C1550      C1551   1.380       .  A
C1550      C2726   1.470       .  S
C1551      H1553   1.082       .  S
N1554      N1555   1.322       .  A
N1554      C1558   1.344       .  A
N1555      C1556   1.344       .  A
C1556      C1557   1.384       .  A
C1556      H1559   1.082       .  S
C1557      C1558   1.385       .  A
C1557      C2740   1.480       .  S
C1558      H1560   1.082       .  S
N1561      N1562   1.323       .  A
N1561      C1565   1.346       .  A
N1561     Cu1569   2.075       .  S
N1562      C1563   1.345       .  A
N1562     Cu1568   2.073       .  S
C1563      C1564   1.381       .  A
C1563      H1566   1.082       .  S
C1564      C1565   1.382       .  A
C1564      C3219   1.473       .  S
C1565      H1567   1.082       .  S
Cu1568     N1571   2.073       .  S
Cu1569     N1579   2.075       .  S
Cu1570     N1572   2.066       .  S
Cu1570     N1578   2.066       .  S
N1571      N1572   1.321       .  A
N1571      C1575   1.345       .  A
N1572      C1573   1.343       .  A
C1573      C1574   1.384       .  A
C1573      H1576   1.080       .  S
C1574      C1575   1.385       .  A
C1574      C2757   1.480       .  S
C1575      H1577   1.082       .  S
N1578      N1579   1.320       .  A
N1578      C1582   1.343       .  A
N1579      C1580   1.344       .  A
C1580      C1581   1.389       .  A
C1580      H1583   1.082       .  S
C1581      C1582   1.387       .  A
C1581      C2743   1.488       .  S
C1582      H1584   1.081       .  S
N1585      N1586   1.323       .  A
N1585      C1589   1.345       .  A
N1585     Cu1593   2.072       .  S
N1586      C1587   1.345       .  A
N1586     Cu1592   2.071       .  S
C1587      C1588   1.381       .  A
C1587      H1590   1.082       .  S
C1588      C1589   1.382       .  A
C1588      C3149   1.472       .  S
C1589      H1591   1.082       .  S
Cu1592     N1595   2.072       .  S
Cu1593     N1603   2.072       .  S
Cu1594     N1596   2.069       .  S
Cu1594     N1602   2.070       .  S
N1595      N1596   1.322       .  A
N1595      C1599   1.345       .  A
N1596      C1597   1.344       .  A
C1597      C1598   1.382       .  A
C1597      H1600   1.082       .  S
C1598      C1599   1.383       .  A
C1598      C4255   1.475       .  S
C1599      H1601   1.082       .  S
N1602      N1603   1.322       .  A
N1602      C1606   1.344       .  A
N1603      C1604   1.344       .  A
C1604      C1605   1.384       .  A
C1604      H1607   1.082       .  S
C1605      C1606   1.384       .  A
C1605      C2712   1.480       .  S
C1606      H1608   1.082       .  S
N1609      N1610   1.321       .  A
N1609      C1613   1.346       .  A
N1609     Cu1617   2.078       .  S
N1610      C1611   1.343       .  A
N1610     Cu1616   2.065       .  S
C1611      C1612   1.384       .  A
C1611      H1614   1.082       .  S
C1612      C1613   1.387       .  A
C1612      C2684   1.484       .  S
C1613      H1615   1.082       .  S
Cu1616     N1619   2.064       .  S
Cu1617     N1627   2.078       .  S
Cu1618     N1620   2.066       .  S
Cu1618     N1626   2.067       .  S
N1619      N1620   1.320       .  A
N1619      C1623   1.342       .  A
N1620      C1621   1.344       .  A
C1621      C1622   1.387       .  A
C1621      H1624   1.082       .  S
C1622      C1623   1.385       .  A
C1622      C2698   1.483       .  S
C1623      H1625   1.082       .  S
N1626      N1627   1.319       .  A
N1626      C1630   1.341       .  A
N1627      C1628   1.343       .  A
C1628      C1629   1.396       .  A
C1628      H1631   1.082       .  S
C1629      C1630   1.393       .  A
C1629      C2715   1.503       .  S
C1630      H1632   1.079       .  S
N1633      N1634   1.319       .  A
N1633      C1637   1.343       .  A
N1633     Cu1641   2.067       .  S
N1634      C1635   1.343       .  A
N1634     Cu1640   2.073       .  S
C1635      C1636   1.391       .  A
C1635      H1638   1.081       .  S
C1636      C1637   1.390       .  A
C1636      C3972   1.495       .  S
C1637      H1639   1.080       .  S
Cu1640     N1643   2.074       .  S
Cu1641     N1651   2.067       .  S
Cu1642     N1644   2.081       .  S
Cu1642     N1650   2.080       .  S
N1643      N1644   1.323       .  A
N1643      C1647   1.345       .  A
N1644      C1645   1.347       .  A
C1645      C1646   1.385       .  A
C1645      H1648   1.082       .  S
C1646      C1647   1.383       .  A
C1646      C2799   1.480   1_455  S
C1647      H1649   1.082       .  S
N1650      N1651   1.321       .  A
N1650      C1654   1.345       .  A
N1651      C1652   1.344       .  A
C1652      C1653   1.387       .  A
C1652      H1655   1.081       .  S
C1653      C1654   1.390       .  A
C1653      C2673   1.490       .  S
C1654      H1656   1.082       .  S
N1657      N1658   1.319       .  A
N1657      C1661   1.344       .  A
N1657     Cu1665   2.071       .  S
N1658      C1659   1.343       .  A
N1658     Cu1664   2.075       .  S
C1659      C1660   1.394       .  A
C1659      H1662   1.081       .  S
C1660      C1661   1.393       .  A
C1660      C2687   1.500       .  S
C1661      H1663   1.079       .  S
Cu1664     N1667   2.076       .  S
Cu1665     N1675   2.072       .  S
Cu1666     N1668   2.072       .  S
Cu1666     N1674   2.072       .  S
N1667      N1668   1.323       .  A
N1667      C1671   1.345       .  A
N1668      C1669   1.345       .  A
C1669      C1670   1.382       .  A
C1669      H1672   1.082       .  S
C1670      C1671   1.382       .  A
C1670      C2897   1.474       .  S
C1671      H1673   1.082       .  S
N1674      N1675   1.323       .  A
N1674      C1678   1.346       .  A
N1675      C1676   1.344       .  A
C1676      C1677   1.381       .  A
C1676      H1679   1.082       .  S
C1677      C1678   1.381       .  A
C1677      C2670   1.471       .  S
C1678      H1680   1.082       .  S
N1681      N1682   1.322       .  A
N1681      C1685   1.345       .  A
N1681     Cu1689   2.068       .  S
N1682      C1683   1.344       .  A
N1682     Cu1688   2.070       .  S
C1683      C1684   1.383       .  A
C1683      H1686   1.082       .  S
C1684      C1685   1.382       .  A
C1684      C2642   1.474       .  S
C1685      H1687   1.082       .  S
Cu1688     N1691   2.070       .  S
Cu1689     N1699   2.068       .  S
Cu1690     N1692   2.078       .  S
Cu1690     N1698   2.078       .  S
N1691      N1692   1.323       .  A
N1691      C1695   1.345       .  A
N1692      C1693   1.345       .  A
C1693      C1694   1.383       .  A
C1693      H1696   1.082       .  S
C1694      C1695   1.380       .  A
C1694      C3751   1.473       .  S
C1695      H1697   1.082       .  S
N1698      N1699   1.318       .  A
N1698      C1702   1.343       .  A
N1699      C1700   1.342       .  A
C1700      C1701   1.393       .  A
C1700      H1703   1.079       .  S
C1701      C1702   1.396       .  A
C1701      C2659   1.504       .  S
C1702      H1704   1.082       .  S
N1705      N1706   1.321       .  A
N1705      C1709   1.345       .  A
N1705     Cu1713   2.070       .  S
N1706      C1707   1.342       .  A
N1706     Cu1712   2.069       .  S
C1707      C1708   1.386       .  A
C1707      H1710   1.082       .  S
C1708      C1709   1.387       .  A
C1708      C4045   1.485       .  S
C1709      H1711   1.081       .  S
Cu1712     N1715   2.069       .  S
Cu1713     N1723   2.071       .  S
Cu1714     N1716   2.077       .  S
Cu1714     N1722   2.077       .  S
N1715      N1716   1.321       .  A
N1715      C1719   1.344       .  A
N1716      C1717   1.345       .  A
C1717      C1718   1.388       .  A
C1717      H1720   1.082       .  S
C1718      C1719   1.387       .  A
C1718      C2827   1.488       .  S
C1719      H1721   1.081       .  S
N1722      N1723   1.323       .  A
N1722      C1726   1.345       .  A
N1723      C1724   1.344       .  A
C1724      C1725   1.383       .  A
C1724      H1727   1.082       .  S
C1725      C1726   1.385       .  A
C1725      C2656   1.480       .  S
C1726      H1728   1.082       .  S
N1729      N1730   1.319       .  A
N1729      C1733   1.343       .  A
N1729     Cu1737   2.066       .  S
N1730      C1731   1.343       .  A
N1730     Cu1736   2.073       .  S
C1731      C1732   1.392       .  A
C1731      H1734   1.081       .  S
C1732      C1733   1.390       .  A
C1732      C3090   1.495       .  S
C1733      H1735   1.079       .  S
Cu1736     N1739   2.073       .  S
Cu1737     N1747   2.067       .  S
Cu1738     N1740   2.067       .  S
Cu1738     N1746   2.067       .  S
N1739      N1740   1.321       .  A
N1739      C1743   1.343       .  A
N1740      C1741   1.344       .  A
C1741      C1742   1.387       .  A
C1741      H1744   1.081       .  S
C1742      C1743   1.387       .  A
C1742      C2645   1.486       .  S
C1743      H1745   1.082       .  S
N1746      N1747   1.322       .  A
N1746      C1750   1.343       .  A
N1747      C1748   1.344       .  A
C1748      C1749   1.381       .  A
C1748      H1751   1.082       .  S
C1749      C1750   1.382       .  A
C1749      C2631   1.471       .  S
C1750      H1752   1.082       .  S
N1753      N1754   1.321       .  A
N1753      C1757   1.345       .  A
N1753     Cu1761   2.074       .  S
N1754      C1755   1.342       .  A
N1754     Cu1760   2.069       .  S
C1755      C1756   1.386       .  A
C1755      H1758   1.082       .  S
C1756      C1757   1.388       .  A
C1756      C2614   1.487       .  S
C1757      H1759   1.081       .  S
Cu1760     N1763   2.068       .  S
Cu1761     N1771   2.073       .  S
Cu1762     N1764   2.061       .  S
Cu1762     N1770   2.061       .  S
N1763      N1764   1.321       .  A
N1763      C1767   1.344       .  A
N1764      C1765   1.343       .  A
C1765      C1766   1.380       .  A
C1765      H1768   1.082       .  S
C1766      C1767   1.383       .  A
C1766      C2701   1.471       .  S
C1767      H1769   1.082       .  S
N1770      N1771   1.318       .  A
N1770      C1774   1.341       .  A
N1771      C1772   1.342       .  A
C1772      C1773   1.395       .  A
C1772      H1775   1.083       .  S
C1773      C1774   1.392       .  A
C1773      C2628   1.500       .  S
C1774      H1776   1.079       .  S
N1777      N1778   1.321       .  A
N1777      C1781   1.344       .  A
N1777     Cu1785   2.075       .  S
N1778      C1779   1.344       .  A
N1778     Cu1784   2.067       .  S
C1779      C1780   1.386       .  A
C1779      H1782   1.081       .  S
C1780      C1781   1.387       .  A
C1780      C2939   1.485       .  S
C1781      H1783   1.082       .  S
Cu1784     N1787   2.067       .  S
Cu1785     N1795   2.075       .  S
Cu1786     N1788   2.070       .  S
Cu1786     N1794   2.070       .  S
N1787      N1788   1.321       .  A
N1787      C1791   1.343       .  A
N1788      C1789   1.344       .  A
C1789      C1790   1.384       .  A
C1789      H1792   1.082       .  S
C1790      C1791   1.383       .  A
C1790      C2617   1.477       .  S
C1791      H1793   1.080       .  S
N1794      N1795   1.321       .  A
N1794      C1798   1.344       .  A
N1795      C1796   1.344       .  A
C1796      C1797   1.387       .  A
C1796      H1799   1.082       .  S
C1797      C1798   1.386       .  A
C1797      C2600   1.486       .  S
C1798      H1800   1.081       .  S
N1801      N1802   1.323       .  A
N1801      C1805   1.346       .  A
N1801     Cu1809   2.075       .  S
N1802      C1803   1.344       .  A
N1802     Cu1808   2.068       .  S
C1803      C1804   1.380       .  A
C1803      H1806   1.082       .  S
C1804      C1805   1.382       .  A
C1804      C2855   1.470       .  S
C1805      H1807   1.082       .  S
Cu1808     N1811   2.068       .  S
Cu1809     N1819   2.075       .  S
Cu1810     N1812   2.072       .  S
Cu1810     N1818   2.072       .  S
N1811      N1812   1.319       .  A
N1811      C1815   1.343       .  A
N1812      C1813   1.344       .  A
C1813      C1814   1.391       .  A
C1813      H1816   1.081       .  S
C1814      C1815   1.390       .  A
C1814      C3205   1.494       .  S
C1815      H1817   1.080       .  S
N1818      N1819   1.321       .  A
N1818      C1822   1.344       .  A
N1819      C1820   1.344       .  A
C1820      C1821   1.387       .  A
C1820      H1823   1.082       .  S
C1821      C1822   1.387       .  A
C1821      C2603   1.487       .  S
C1822      H1824   1.081       .  S
N1825      N1826   1.323       .  A
N1825      C1829   1.346       .  A
N1825     Cu1833   2.073       .  S
N1826      C1827   1.344       .  A
N1826     Cu1832   2.072       .  S
C1827      C1828   1.380       .  A
C1827      H1830   1.082       .  S
C1828      C1829   1.381       .  A
C1828      C2572   1.471       .  S
C1829      H1831   1.082       .  S
Cu1832     N1835   2.072       .  S
Cu1833     N1843   2.074       .  S
Cu1834     N1836   2.078       .  S
Cu1834     N1842   2.078       .  S
N1835      N1836   1.322       .  A
N1835      C1839   1.345       .  A
N1836      C1837   1.346       .  A
C1837      C1838   1.384       .  A
C1837      H1840   1.082       .  S
C1838      C1839   1.382       .  A
C1838      C3373   1.478       .  S
C1839      H1841   1.082       .  S
N1842      N1843   1.323       .  A
N1842      C1846   1.345       .  A
N1843      C1844   1.346       .  A
C1844      C1845   1.380       .  A
C1844      H1847   1.082       .  S
C1845      C1846   1.382       .  A
C1845      C2586   1.472       .  S
C1846      H1848   1.082       .  S
N1849      N1850   1.319       .  A
N1849      C1853   1.345       .  A
N1849     Cu1857   2.079       .  S
N1850      C1851   1.342       .  A
N1850     Cu1856   2.070       .  S
C1851      C1852   1.393       .  A
C1851      H1854   1.078       .  S
C1852      C1853   1.395       .  A
C1852      C3247   1.502       .  S
C1853      H1855   1.081       .  S
Cu1856     N1859   2.070       .  S
Cu1857     N1867   2.080       .  S
Cu1858     N1860   2.075       .  S
Cu1858     N1866   2.076       .  S
N1859      N1860   1.322       .  A
N1859      C1863   1.345       .  A
N1860      C1861   1.346       .  A
C1861      C1862   1.382       .  A
C1861      H1864   1.082       .  S
C1862      C1863   1.381       .  A
C1862      C2558   1.472       .  S
C1863      H1865   1.082       .  S
N1866      N1867   1.323       .  A
N1866      C1870   1.345       .  A
N1867      C1868   1.346       .  A
C1868      C1869   1.386       .  A
C1868      H1871   1.082       .  S
C1869      C1870   1.385       .  A
C1869      C2589   1.484       .  S
C1870      H1872   1.082       .  S
N1873      N1874   1.321       .  A
N1873      C1877   1.346       .  A
N1873     Cu1881   2.076       .  S
N1874      C1875   1.343       .  A
N1874     Cu1880   2.073       .  S
C1875      C1876   1.387       .  A
C1875      H1878   1.082       .  S
C1876      C1877   1.389       .  A
C1876      C2516   1.490   1_556  S
C1877      H1879   1.081       .  S
Cu1880     N1883   2.073       .  S
Cu1881     N1891   2.077       .  S
Cu1882     N1884   2.077       .  S
Cu1882     N1890   2.078       .  S
N1883      N1884   1.323       .  A
N1883      C1887   1.345       .  A
N1884      C1885   1.346       .  A
C1885      C1886   1.382       .  A
C1885      H1888   1.082       .  S
C1886      C1887   1.381       .  A
C1886      C2530   1.472       .  S
C1887      H1889   1.082       .  S
N1890      N1891   1.322       .  A
N1890      C1894   1.346       .  A
N1891      C1892   1.345       .  A
C1892      C1893   1.385       .  A
C1892      H1895   1.082       .  S
C1893      C1894   1.386       .  A
C1893      C2544   1.484       .  S
C1894      H1896   1.082       .  S
N1897      N1898   1.322       .  A
N1897      C1901   1.346       .  A
N1897     Cu1905   2.076       .  S
N1898      C1899   1.345       .  A
N1898     Cu1904   2.074       .  S
C1899      C1900   1.382       .  A
C1899      H1902   1.082       .  S
C1900      C1901   1.382       .  A
C1900      C2561   1.474       .  S
C1901      H1903   1.082       .  S
Cu1904     N1907   2.074       .  S
Cu1905     N1915   2.076       .  S
Cu1906     N1908   2.079       .  S
Cu1906     N1914   2.079       .  S
N1907      N1908   1.321       .  A
N1907      C1911   1.344       .  A
N1908      C1909   1.346       .  A
C1909      C1910   1.389       .  A
C1909      H1912   1.081       .  S
C1910      C1911   1.387       .  A
C1910      C3639   1.489       .  S
C1911      H1913   1.082       .  S
N1914      N1915   1.321       .  A
N1914      C1918   1.345       .  A
N1915      C1916   1.345       .  A
C1916      C1917   1.388       .  A
C1916      H1919   1.081       .  S
C1917      C1918   1.388       .  A
C1917      C2547   1.490       .  S
C1918      H1920   1.082       .  S
N1921      N1922   1.322       .  A
N1921      C1925   1.345       .  A
N1921     Cu1929   2.072       .  S
N1922      C1923   1.345       .  A
N1922     Cu1928   2.076       .  S
C1923      C1924   1.386       .  A
C1923      H1926   1.082       .  S
C1924      C1925   1.385       .  A
C1924      C3037   1.484       .  S
C1925      H1927   1.082       .  S
Cu1928     N1931   2.076       .  S
Cu1929     N1939   2.072       .  S
Cu1930     N1932   2.075       .  S
Cu1930     N1938   2.075       .  S
N1931      N1932   1.323       .  A
N1931      C1935   1.345       .  A
N1932      C1933   1.346       .  A
C1933      C1934   1.383       .  A
C1933      H1936   1.082       .  S
C1934      C1935   1.382       .  A
C1934      C2533   1.475       .  S
C1935      H1937   1.082       .  S
N1938      N1939   1.323       .  A
N1938      C1942   1.345       .  A
N1939      C1940   1.346       .  A
C1940      C1941   1.381       .  A
C1940      H1943   1.082       .  S
C1941      C1942   1.381       .  A
C1941      C2502   1.471       .  S
C1942      H1944   1.082       .  S
N1945      N1946   1.322       .  A
N1945      C1949   1.346       .  A
N1945     Cu1953   2.077       .  S
N1946      C1947   1.344       .  A
N1946     Cu1952   2.073       .  S
C1947      C1948   1.385       .  A
C1947      H1950   1.082       .  S
C1948      C1949   1.387       .  A
C1948      C2488   1.485       .  S
C1949      H1951   1.082       .  S
Cu1952     N1955   2.073       .  S
Cu1953     N1963   2.077       .  S
Cu1954     N1956   2.074       .  S
Cu1954     N1962   2.075       .  S
N1955      N1956   1.321       .  A
N1955      C1959   1.344       .  A
N1956      C1957   1.345       .  A
C1957      C1958   1.389       .  A
C1957      H1960   1.081       .  S
C1958      C1959   1.388       .  A
C1958      C2474   1.490       .  S
C1959      H1961   1.082       .  S
N1962      N1963   1.322       .  A
N1962      C1966   1.345       .  A
N1963      C1964   1.345       .  A
C1964      C1965   1.386       .  A
C1964      H1967   1.082       .  S
C1965      C1966   1.386       .  A
C1965      C2505   1.484       .  S
C1966      H1968   1.082       .  S
N1969      N1970   1.320       .  A
N1969      C1973   1.345       .  A
N1969     Cu1977   2.082       .  S
N1970      C1971   1.343       .  A
N1970     Cu1976   2.074       .  S
C1971      C1972   1.391       .  A
C1971      H1974   1.079       .  S
C1972      C1973   1.393       .  A
C1972      C2491   1.500       .  S
C1973      H1975   1.081       .  S
Cu1976     N1979   2.073       .  S
Cu1977     N1987   2.082       .  S
Cu1978     N1980   2.065       .  S
Cu1978     N1986   2.065       .  S
N1979      N1980   1.320       .  A
N1979      C1983   1.345       .  A
N1980      C1981   1.343       .  A
C1981      C1982   1.385       .  A
C1981      H1984   1.082       .  S
C1982      C1983   1.387       .  A
C1982      C2446   1.484       .  S
C1983      H1985   1.082       .  S
N1986      N1987   1.321       .  A
N1986      C1990   1.343       .  A
N1987      C1988   1.346       .  A
C1988      C1989   1.388       .  A
C1988      H1991   1.082       .  S
C1989      C1990   1.385       .  A
C1989      C2460   1.486       .  S
C1990      H1992   1.082       .  S
N1993      N1994   1.321       .  A
N1993      C1997   1.346       .  A
N1993     Cu2001   2.074       .  S
N1994      C1995   1.344       .  A
N1994     Cu2000   2.076       .  S
C1995      C1996   1.387       .  A
C1995      H1998   1.082       .  S
C1996      C1997   1.387       .  A
C1996      C2866   1.487   1_556  S
C1997      H1999   1.081       .  S
Cu2000     N2003   2.076       .  S
Cu2001     N2011   2.074       .  S
Cu2002     N2004   2.076       .  S
Cu2002     N2010   2.076       .  S
N2003      N2004   1.323       .  A
N2003      C2007   1.346       .  A
N2004      C2005   1.346       .  A
C2005      C2006   1.381       .  A
C2005      H2008   1.082       .  S
C2006      C2007   1.382       .  A
C2006      C3667   1.473       .  S
C2007      H2009   1.082       .  S
N2010      N2011   1.321       .  A
N2010      C2014   1.346       .  A
N2011      C2012   1.344       .  A
C2012      C2013   1.386       .  A
C2012      H2015   1.082       .  S
C2013      C2014   1.388       .  A
C2013      C2463   1.487       .  S
C2014      H2016   1.081       .  S
N2017      N2018   1.321       .  A
N2017      C2021   1.345       .  A
N2017     Cu2025   2.076       .  S
N2018      C2019   1.343       .  A
N2018     Cu2024   2.065       .  S
C2019      C2020   1.386       .  A
C2019      H2022   1.081       .  S
C2020      C2021   1.388       .  A
C2020      C2995   1.486       .  S
C2021      H2023   1.082       .  S
Cu2024     N2027   2.065       .  S
Cu2025     N2035   2.076       .  S
Cu2026     N2028   2.073       .  S
Cu2026     N2034   2.074       .  S
N2027      N2028   1.322       .  A
N2027      C2031   1.344       .  A
N2028      C2029   1.345       .  A
C2029      C2030   1.384       .  A
C2029      H2032   1.082       .  S
C2030      C2031   1.381       .  A
C2030      C4059   1.474       .  S
C2031      H2033   1.082       .  S
N2034      N2035   1.324       .  A
N2034      C2038   1.345       .  A
N2035      C2036   1.345       .  A
C2036      C2037   1.380       .  A
C2036      H2039   1.082       .  S
C2037      C2038   1.380       .  A
C2037      C2432   1.470       .  S
C2038      H2040   1.082       .  S
N2041      N2042   1.320       .  A
N2041      C2045   1.345       .  A
N2041     Cu2049   2.074       .  S
N2042      C2043   1.343       .  A
N2042     Cu2048   2.077       .  S
C2043      C2044   1.391       .  A
C2043      H2046   1.081       .  S
C2044      C2045   1.391       .  A
C2044      C3849   1.496       .  S
C2045      H2047   1.079       .  S
Cu2048     N2051   2.076       .  S
Cu2049     N2059   2.074       .  S
Cu2050     N2052   2.072       .  S
Cu2050     N2058   2.072       .  S
N2051      N2052   1.320       .  A
N2051      C2055   1.345       .  A
N2052      C2053   1.344       .  A
C2053      C2054   1.388       .  A
C2053      H2056   1.081       .  S
C2054      C2055   1.390       .  A
C2054      C2477   1.492       .  S
C2055      H2057   1.081       .  S
N2058      N2059   1.322       .  A
N2058      C2062   1.344       .  A
N2059      C2060   1.345       .  A
C2060      C2061   1.386       .  A
C2060      H2063   1.082       .  S
C2061      C2062   1.385       .  A
C2061      C2435   1.482       .  S
C2062      H2064   1.082       .  S
N2065      N2066   1.320       .  A
N2065      C2069   1.343       .  A
N2065     Cu2073   2.069       .  S
N2066      C2067   1.343       .  A
N2066     Cu2072   2.073       .  S
C2067      C2068   1.391       .  A
C2067      H2070   1.081       .  S
C2068      C2069   1.390       .  A
C2068      C2407   1.494       .  S
C2069      H2071   1.079       .  S
Cu2072     N2075   2.073       .  S
Cu2073     N2083   2.069       .  S
Cu2074     N2076   2.069       .  S
Cu2074     N2082   2.069       .  S
N2075      N2076   1.319       .  A
N2075      C2079   1.343       .  A
N2076      C2077   1.344       .  A
C2077      C2078   1.391       .  A
C2077      H2080   1.080       .  S
C2078      C2079   1.391       .  A
C2078      C3499   1.495       .  S
C2079      H2081   1.081       .  S
N2082      N2083   1.322       .  A
N2082      C2086   1.343       .  A
N2083      C2084   1.345       .  A
C2084      C2085   1.384       .  A
C2084      H2087   1.082       .  S
C2085      C2086   1.383       .  A
C2085      C2421   1.478       .  S
C2086      H2088   1.082       .  S
N2089      N2090   1.322       .  A
N2089      C2093   1.345       .  A
N2089     Cu2097   2.073       .  S
N2090      C2091   1.343       .  A
N2090     Cu2096   2.067       .  S
C2091      C2092   1.382       .  A
C2091      H2094   1.082       .  S
C2092      C2093   1.383       .  A
C2092      C2449   1.474       .  S
C2093      H2095   1.082       .  S
Cu2096     N2099   2.067       .  S
Cu2097     N2107   2.073       .  S
Cu2098     N2100   2.062       .  S
Cu2098     N2106   2.062       .  S
N2099      N2100   1.322       .  A
N2099      C2103   1.343       .  A
N2100      C2101   1.344       .  A
C2101      C2102   1.379       .  A
C2101      H2104   1.082       .  S
C2102      C2103   1.381       .  A
C2102      C3121   1.466       .  S
C2103      H2105   1.082       .  S
N2106      N2107   1.321       .  A
N2106      C2110   1.342       .  A
N2107      C2108   1.344       .  A
C2108      C2109   1.387       .  A
C2108      H2111   1.082       .  S
C2109      C2110   1.385       .  A
C2109      C2418   1.483       .  S
C2110      H2112   1.081       .  S
N2113      N2114   1.323       .  A
N2113      C2117   1.345       .  A
N2113     Cu2121   2.076       .  S
N2114      C2115   1.346       .  A
N2114     Cu2120   2.076       .  S
C2115      C2116   1.381       .  A
C2115      H2118   1.082       .  S
C2116      C2117   1.382       .  A
C2116      C2376   1.473       .  S
C2117      H2119   1.082       .  S
Cu2120     N2123   2.076       .  S
Cu2121     N2131   2.075       .  S
Cu2122     N2124   2.068       .  S
Cu2122     N2130   2.068       .  S
N2123      N2124   1.322       .  A
N2123      C2127   1.345       .  A
N2124      C2125   1.343       .  A
C2125      C2126   1.384       .  A
C2125      H2128   1.082       .  S
C2126      C2127   1.385       .  A
C2126      C2575   1.480       .  S
C2127      H2129   1.082       .  S
N2130      N2131   1.319       .  A
N2130      C2134   1.344       .  A
N2131      C2132   1.343       .  A
C2132      C2133   1.391       .  A
C2132      H2135   1.081       .  S
C2133      C2134   1.390       .  A
C2133      C2390   1.494       .  S
C2134      H2136   1.080       .  S
N2137      N2138   1.322       .  A
N2137      C2141   1.346       .  A
N2137     Cu2145   2.078       .  S
N2138      C2139   1.342       .  A
N2138     Cu2144   2.066       .  S
C2139      C2140   1.380       .  A
C2139      H2142   1.082       .  S
C2140      C2141   1.384       .  A
C2140      C2362   1.473       .  S
C2141      H2143   1.082       .  S
Cu2144     N2147   2.065       .  S
Cu2145     N2155   2.078       .  S
Cu2146     N2148   2.067       .  S
Cu2146     N2154   2.068       .  S
N2147      N2148   1.322       .  A
N2147      C2151   1.344       .  A
N2148      C2149   1.344       .  A
C2149      C2150   1.381       .  A
C2149      H2152   1.082       .  S
C2150      C2151   1.380       .  A
C2150      C4143   1.469       .  S
C2151      H2153   1.082       .  S
N2154      N2155   1.323       .  A
N2154      C2158   1.343       .  A
N2155      C2156   1.346       .  A
C2156      C2157   1.383       .  A
C2156      H2159   1.082       .  S
C2157      C2158   1.381       .  A
C2157      C2393   1.473       .  S
C2158      H2160   1.082       .  S
N2161      N2162   1.321       .  A
N2161      C2165   1.344       .  A
N2161     Cu2169   2.064       .  S
N2162      C2163   1.344       .  A
N2162     Cu2168   2.076       .  S
C2163      C2164   1.387       .  A
C2163      H2166   1.082       .  S
C2164      C2165   1.385       .  A
C2164      C2365   1.484       .  S
C2165      H2167   1.082       .  S
Cu2168     N2171   2.076       .  S
Cu2169     N2179   2.065       .  S
Cu2170     N2172   2.074       .  S
Cu2170     N2178   2.074       .  S
N2171      N2172   1.321       .  A
N2171      C2175   1.344       .  A
N2172      C2173   1.344       .  A
C2173      C2174   1.389       .  A
C2173      H2176   1.081       .  S
C2174      C2175   1.389       .  A
C2174      C3709   1.491       .  S
C2175      H2177   1.081       .  S
N2178      N2179   1.321       .  A
N2178      C2182   1.345       .  A
N2179      C2180   1.343       .  A
C2180      C2181   1.383       .  A
C2180      H2183   1.082       .  S
C2181      C2182   1.386       .  A
C2181      C2351   1.480       .  S
C2182      H2184   1.082       .  S
N2185      N2186   1.321       .  A
N2185      C2189   1.345       .  A
N2185     Cu2193   2.076       .  S
N2186      C2187   1.342       .  A
N2186     Cu2192   2.066       .  S
C2187      C2188   1.386       .  A
C2187      H2190   1.082       .  S
C2188      C2189   1.389       .  A
C2188      C2348   1.488       .  S
C2189      H2191   1.081       .  S
Cu2192     N2195   2.066       .  S
Cu2193     N2203   2.076       .  S
Cu2194     N2196   2.074       .  S
Cu2194     N2202   2.075       .  S
N2195      N2196   1.322       .  A
N2195      C2199   1.344       .  A
N2196      C2197   1.345       .  A
C2197      C2198   1.382       .  A
C2197      H2200   1.082       .  S
C2198      C2199   1.381       .  A
C2198      C2729   1.472       .  S
C2199      H2201   1.082       .  S
N2202      N2203   1.323       .  A
N2202      C2206   1.344       .  A
N2203      C2204   1.346       .  A
C2204      C2205   1.383       .  A
C2204      H2207   1.082       .  S
C2205      C2206   1.383       .  A
C2205      C2519   1.476       .  S
C2206      H2208   1.082       .  S
N2209      N2210   1.321       .  A
N2209      C2213   1.344       .  A
N2209     Cu2217   2.070       .  S
N2210      C2211   1.344       .  A
N2210     Cu2216   2.072       .  S
C2211      C2212   1.386       .  A
C2211      H2214   1.082       .  S
C2212      C2213   1.385       .  A
C2212      C2911   1.482       .  S
C2213      H2215   1.082       .  S
Cu2216     N2219   2.073       .  S
Cu2217     N2227   2.070       .  S
Cu2218     N2220   2.077       .  S
Cu2218     N2226   2.077       .  S
N2219      N2220   1.322       .  A
N2219      C2223   1.345       .  A
N2220      C2221   1.345       .  A
C2221      C2222   1.385       .  A
C2221      H2224   1.082       .  S
C2222      C2223   1.384       .  A
C2222      C2379   1.480   1_455  S
C2223      H2225   1.080       .  S
N2226      N2227   1.322       .  A
N2226      C2230   1.345       .  A
N2227      C2228   1.344       .  A
C2228      C2229   1.383       .  A
C2228      H2231   1.081       .  S
C2229      C2230   1.385       .  A
C2229      C2334   1.478       .  S
C2230      H2232   1.082       .  S
N2233      N2234   1.322       .  A
N2233      C2237   1.344       .  A
N2233     Cu2241   2.073       .  S
N2234      C2235   1.346       .  A
N2234     Cu2240   2.071       .  S
C2235      C2236   1.381       .  A
C2235      H2238   1.082       .  S
C2236      C2237   1.382       .  A
C2236      C2323   1.471       .  S
C2237      H2239   1.082       .  S
Cu2240     N2243   2.071       .  S
Cu2241     N2251   2.072       .  S
Cu2242     N2244   2.075       .  S
Cu2242     N2250   2.075       .  S
N2243      N2244   1.322       .  A
N2243      C2247   1.344       .  A
N2244      C2245   1.345       .  A
C2245      C2246   1.386       .  A
C2245      H2248   1.082       .  S
C2246      C2247   1.384       .  A
C2246      C4003   1.481       .  S
C2247      H2249   1.082       .  S
N2250      N2251   1.320       .  A
N2250      C2254   1.344       .  A
N2251      C2252   1.344       .  A
C2252      C2253   1.390       .  A
C2252      H2255   1.080       .  S
C2253      C2254   1.391       .  A
C2253      C2337   1.494       .  S
C2254      H2256   1.081       .  S
N2257      N2258   1.320       .  A
N2257      C2261   1.345       .  A
N2257     Cu2265   2.076       .  S
N2258      C2259   1.343       .  A
N2258     Cu2264   2.071       .  S
C2259      C2260   1.389       .  A
C2259      H2262   1.081       .  S
C2260      C2261   1.391       .  A
C2260      C2838   1.494       .  S
C2261      H2263   1.080       .  S
Cu2264     N2267   2.070       .  S
Cu2265     N2275   2.076       .  S
Cu2266     N2268   2.074       .  S
Cu2266     N2274   2.075       .  S
N2267      N2268   1.322       .  A
N2267      C2271   1.344       .  A
N2268      C2269   1.345       .  A
C2269      C2270   1.385       .  A
C2269      H2272   1.082       .  S
C2270      C2271   1.384       .  A
C2270      C2320   1.481       .  S
C2271      H2273   1.082       .  S
N2274      N2275   1.323       .  A
N2274      C2278   1.345       .  A
N2275      C2276   1.345       .  A
C2276      C2277   1.384       .  A
C2276      H2279   1.082       .  S
C2277      C2278   1.384       .  A
C2277      C2309   1.479       .  S
C2278      H2280   1.082       .  S
N2281      N2282   1.323       .  A
N2281      C2285   1.345       .  A
N2281     Cu2289   2.074       .  S
N2282      C2283   1.345       .  A
N2282     Cu2288   2.075       .  S
C2283      C2284   1.380       .  A
C2283      H2286   1.082       .  S
C2284      C2285   1.381       .  A
C2284      C2306   1.471       .  S
C2285      H2287   1.082       .  S
Cu2288     N2291   2.075       .  S
Cu2289     N2299   2.074       .  S
Cu2290     N2292   2.063       .  S
Cu2290     N2298   2.064       .  S
N2291      N2292   1.320       .  A
N2291      C2295   1.344       .  A
N2292      C2293   1.343       .  A
C2293      C2294   1.385       .  A
C2293      H2296   1.081       .  S
C2294      C2295   1.388       .  A
C2294      C2404   1.485       .  S
C2295      H2297   1.082       .  S
N2298      N2299   1.318       .  A
N2298      C2302   1.341       .  A
N2299      C2300   1.343       .  A
C2300      C2301   1.395       .  A
C2300      H2303   1.081       .  S
C2301      C2302   1.393       .  A
C2301      C4157   1.502       .  S
C2302      H2304   1.078       .  S
C2305      C2306   1.401       .  A
C2305      C2310   1.404       .  A
C2305      H2312   1.084       .  S
C2306      C2307   1.415       .  A
C2307      C2308   1.405       .  A
C2307      N2314   1.442       .  S
C2308      C2309   1.404       .  A
C2308      H2313   1.084       .  S
C2309      C2310   1.415       .  A
C2310      N2311   1.439       .  S
N2311      O2315   1.263       .  A
N2311      O2316   1.263       .  A
N2314      O2317   1.262       .  A
N2314      O2318   1.263       .  A
C2319      C2320   1.404       .  A
C2319      C2324   1.407       .  A
C2319      H2326   1.083       .  S
C2320      C2321   1.413       .  A
C2321      C2322   1.401       .  A
C2321      N2328   1.435       .  S
C2322      C2323   1.401       .  A
C2322      H2327   1.084       .  S
C2323      C2324   1.418       .  A
C2324      N2325   1.445       .  S
N2325      O2329   1.263       .  A
N2325      O2330   1.262       .  A
N2328      O2331   1.262       .  A
N2328      O2332   1.263       .  A
C2333      C2334   1.401       .  A
C2333      C2338   1.403       .  A
C2333      H2340   1.084       .  S
C2334      C2335   1.410       .  A
C2335      C2336   1.401       .  A
C2335      N2342   1.433       .  S
C2336      C2337   1.408       .  A
C2336      H2341   1.082       .  S
C2337      C2338   1.419       .  A
C2338      N2339   1.434       .  S
N2339      O2343   1.263       .  A
N2339      O2344   1.262       .  A
N2342      O2345   1.261       .  A
N2342      O2346   1.262       .  A
C2347      C2348   1.407       .  A
C2347      C2352   1.403       .  A
C2347      H2354   1.082       .  S
C2348      C2349   1.416       .  A
C2349      C2350   1.401       .  A
C2349      N2356   1.434       .  S
C2350      C2351   1.403       .  A
C2350      H2355   1.084       .  S
C2351      C2352   1.413       .  A
C2352      N2353   1.438       .  S
N2353      O2357   1.263       .  A
N2353      O2358   1.263       .  A
N2356      O2359   1.263       .  A
N2356      O2360   1.262       .  A
C2361      C2362   1.401       .  A
C2361      C2366   1.403       .  A
C2361      H2368   1.084       .  S
C2362      C2363   1.412       .  A
C2363      C2364   1.401       .  A
C2363      N2370   1.436       .  S
C2364      C2365   1.405       .  A
C2364      H2369   1.083       .  S
C2365      C2366   1.417       .  A
C2366      N2367   1.435       .  S
N2367      O2371   1.262       .  A
N2367      O2372   1.263       .  A
N2370      O2373   1.261       .  A
N2370      O2374   1.262       .  A
C2375      C2376   1.402       .  A
C2375      C2380   1.400       .  A
C2375      H2382   1.084       .  S
C2376      C2377   1.417       .  A
C2377      C2378   1.407       .  A
C2377      N2384   1.443       .  S
C2378      C2379   1.403       .  A
C2378      H2383   1.084   1_655  S
C2379      C2380   1.411       .  A
C2380      N2381   1.430       .  S
N2381      O2385   1.262       .  A
N2381      O2386   1.262       .  A
N2384      O2387   1.262       .  A
N2384      O2388   1.263       .  A
C2389      C2390   1.408       .  A
C2389      C2394   1.404       .  A
C2389      H2396   1.081       .  S
C2390      C2391   1.418       .  A
C2391      C2392   1.402       .  A
C2391      N2398   1.432       .  S
C2392      C2393   1.399       .  A
C2392      H2397   1.084       .  S
C2393      C2394   1.414       .  A
C2394      N2395   1.440       .  S
N2395      O2399   1.263       .  A
N2395      O2400   1.261       .  A
N2398      O2401   1.263       .  A
N2398      O2402   1.262       .  A
C2403      C2404   1.403   1_556  A
C2403      C2408   1.401       .  A
C2403      H2410   1.083   1_556  S
C2404      C2405   1.415       .  A
C2405      C2406   1.402   1_554  A
C2405      N2412   1.436       .  S
C2406      C2407   1.407       .  A
C2406      H2411   1.081       .  S
C2407      C2408   1.417       .  A
C2408      N2409   1.431       .  S
N2409      O2413   1.262       .  A
N2409      O2414   1.262       .  A
N2412      O2415   1.263       .  A
N2412      O2416   1.263       .  A
C2417      C2418   1.405       .  A
C2417      C2422   1.403       .  A
C2417      H2424   1.083       .  S
C2418      C2419   1.416       .  A
C2419      C2420   1.400       .  A
C2419      N2426   1.435       .  S
C2420      C2421   1.402       .  A
C2420      H2425   1.084       .  S
C2421      C2422   1.414       .  A
C2422      N2423   1.438       .  S
N2423      O2427   1.263       .  A
N2423      O2428   1.263       .  A
N2426      O2429   1.263       .  A
N2426      O2430   1.262       .  A
C2431      C2432   1.400       .  A
C2431      C2436   1.404       .  A
C2431      H2438   1.084       .  S
C2432      C2433   1.414       .  A
C2433      C2434   1.405       .  A
C2433      N2440   1.443       .  S
C2434      C2435   1.405       .  A
C2434      H2439   1.083       .  S
C2435      C2436   1.416       .  A
C2436      N2437   1.438       .  S
N2437      O2441   1.263       .  A
N2437      O2442   1.263       .  A
N2440      O2443   1.262       .  A
N2440      O2444   1.263       .  A
C2445      C2446   1.405       .  A
C2445      C2450   1.404       .  A
C2445      H2452   1.083       .  S
C2446      C2447   1.417       .  A
C2447      C2448   1.402       .  A
C2447      N2454   1.437       .  S
C2448      C2449   1.400       .  A
C2448      H2453   1.084       .  S
C2449      C2450   1.414       .  A
C2450      N2451   1.440       .  S
N2451      O2455   1.263       .  A
N2451      O2456   1.263       .  A
N2454      O2457   1.263       .  A
N2454      O2458   1.263       .  A
C2459      C2460   1.404       .  A
C2459      C2464   1.404       .  A
C2459      H2466   1.083       .  S
C2460      C2461   1.416       .  A
C2461      C2462   1.403       .  A
C2461      N2468   1.436       .  S
C2462      C2463   1.404       .  A
C2462      H2467   1.083       .  S
C2463      C2464   1.415       .  A
C2464      N2465   1.435       .  S
N2465      O2469   1.262       .  A
N2465      O2470   1.263       .  A
N2468      O2471   1.263       .  A
N2468      O2472   1.263       .  A
C2473      C2474   1.405       .  A
C2473      C2478   1.403       .  A
C2473      H2480   1.083       .  S
C2474      C2475   1.416       .  A
C2475      C2476   1.403       .  A
C2475      N2482   1.435       .  S
C2476      C2477   1.406       .  A
C2476      H2481   1.082       .  S
C2477      C2478   1.416       .  A
C2478      N2479   1.434       .  S
N2479      O2483   1.263       .  A
N2479      O2484   1.263       .  A
N2482      O2485   1.263       .  A
N2482      O2486   1.263       .  A
C2487      C2488   1.402       .  A
C2487      C2492   1.402       .  A
C2487      H2494   1.084       .  S
C2488      C2489   1.413       .  A
C2489      C2490   1.405       .  A
C2489      N2496   1.437       .  S
C2490      C2491   1.409       .  A
C2490      H2495   1.081       .  S
C2491      C2492   1.420       .  A
C2492      N2493   1.432       .  S
N2493      O2497   1.263       .  A
N2493      O2498   1.262       .  A
N2496      O2499   1.262       .  A
N2496      O2500   1.263       .  A
C2501      C2502   1.400       .  A
C2501      C2506   1.402       .  A
C2501      H2508   1.084       .  S
C2502      C2503   1.415       .  A
C2503      C2504   1.406       .  A
C2503      N2510   1.443       .  S
C2504      C2505   1.405       .  A
C2504      H2509   1.083       .  S
C2505      C2506   1.415       .  A
C2506      N2507   1.434       .  S
N2507      O2511   1.262       .  A
N2507      O2512   1.262       .  A
N2510      O2513   1.262       .  A
N2510      O2514   1.263       .  A
C2515      C2516   1.406       .  A
C2515      C2520   1.403       .  A
C2515      H2522   1.083       .  S
C2516      C2517   1.417       .  A
C2517      C2518   1.404       .  A
C2517      N2524   1.434   1_554  S
C2518      C2519   1.402       .  A
C2518      H2523   1.084       .  S
C2519      C2520   1.413       .  A
C2520      N2521   1.438       .  S
N2521      O2525   1.263       .  A
N2521      O2526   1.261       .  A
N2524      O2527   1.263   1_556  A
N2524      O2528   1.262       .  A
C2529      C2530   1.401       .  A
C2529      C2534   1.405       .  A
C2529      H2536   1.084       .  S
C2530      C2531   1.414       .  A
C2531      C2532   1.405       .  A
C2531      N2538   1.442       .  S
C2532      C2533   1.402       .  A
C2532      H2537   1.084       .  S
C2533      C2534   1.417       .  A
C2534      N2535   1.441       .  S
N2535      O2539   1.263       .  A
N2535      O2540   1.261       .  A
N2538      O2541   1.263       .  A
N2538      O2542   1.263       .  A
C2543      C2544   1.403       .  A
C2543      C2548   1.403       .  A
C2543      H2550   1.084       .  S
C2544      C2545   1.415       .  A
C2545      C2546   1.405       .  A
C2545      N2552   1.437       .  S
C2546      C2547   1.406       .  A
C2546      H2551   1.083       .  S
C2547      C2548   1.417       .  A
C2548      N2549   1.435       .  S
N2549      O2553   1.262       .  A
N2549      O2554   1.263       .  A
N2552      O2555   1.263       .  A
N2552      O2556   1.263       .  A
C2557      C2558   1.401       .  A
C2557      C2562   1.406       .  A
C2557      H2564   1.084       .  S
C2558      C2559   1.414       .  A
C2559      C2560   1.405       .  A
C2559      N2566   1.443       .  S
C2560      C2561   1.402       .  A
C2560      H2565   1.084       .  S
C2561      C2562   1.417       .  A
C2562      N2563   1.443       .  S
N2563      O2567   1.263       .  A
N2563      O2568   1.261       .  A
N2566      O2569   1.262       .  A
N2566      O2570   1.263       .  A
C2571      C2572   1.400       .  A
C2571      C2576   1.403   1_556  A
C2571      H2578   1.084       .  S
C2572      C2573   1.414       .  A
C2573      C2574   1.405       .  A
C2573      N2580   1.442       .  S
C2574      C2575   1.404   1_556  A
C2574      H2579   1.083       .  S
C2575      C2576   1.416       .  A
C2576      N2577   1.439       .  S
N2577      O2581   1.263       .  A
N2577      O2582   1.263       .  A
N2580      O2583   1.263       .  A
N2580      O2584   1.263       .  A
C2585      C2586   1.400       .  A
C2585      C2590   1.402       .  A
C2585      H2592   1.084       .  S
C2586      C2587   1.416       .  A
C2587      C2588   1.407       .  A
C2587      N2594   1.443       .  S
C2588      C2589   1.405       .  A
C2588      H2593   1.083       .  S
C2589      C2590   1.414       .  A
C2590      N2591   1.434       .  S
N2591      O2595   1.262       .  A
N2591      O2596   1.262       .  A
N2594      O2597   1.262       .  A
N2594      O2598   1.263       .  A
C2599      C2600   1.404       .  A
C2599      C2604   1.402       .  A
C2599      H2606   1.083       .  S
C2600      C2601   1.416       .  A
C2601      C2602   1.403       .  A
C2601      N2608   1.435       .  S
C2602      C2603   1.405       .  A
C2602      H2607   1.083       .  S
C2603      C2604   1.416       .  A
C2604      N2605   1.434       .  S
N2605      O2609   1.262       .  A
N2605      O2610   1.263       .  A
N2608      O2611   1.263       .  A
N2608      O2612   1.263       .  A
C2613      C2614   1.406       .  A
C2613      C2618   1.398       .  A
C2613      H2620   1.083       .  S
C2614      C2615   1.418       .  A
C2615      C2616   1.403       .  A
C2615      N2622   1.434       .  S
C2616      C2617   1.402       .  A
C2616      H2621   1.084       .  S
C2617      C2618   1.408       .  A
C2618      N2619   1.430       .  S
N2619      O2623   1.262       .  A
N2619      O2624   1.262       .  A
N2622      O2625   1.263       .  A
N2622      O2626   1.262       .  A
C2627      C2628   1.410       .  A
C2627      C2632   1.402       .  A
C2627      H2634   1.085       .  S
C2628      C2629   1.422       .  A
C2629      C2630   1.400       .  A
C2629      N2636   1.429       .  S
C2630      C2631   1.397       .  A
C2630      H2635   1.087       .  S
C2631      C2632   1.410       .  A
C2632      N2633   1.439       .  S
N2633      O2637   1.263       .  A
N2633      O2638   1.262       .  A
N2636      O2639   1.262       .  A
N2636      O2640   1.262       .  A
C2641      C2642   1.401       .  A
C2641      C2646   1.402       .  A
C2641      H2648   1.084       .  S
C2642      C2643   1.412       .  A
C2643      C2644   1.402       .  A
C2643      N2650   1.437       .  S
C2644      C2645   1.405   1_565  A
C2644      H2649   1.083       .  S
C2645      C2646   1.417   1_545  A
C2646      N2647   1.434   1_565  S
N2647      O2651   1.262       .  A
N2647      O2652   1.263       .  A
N2650      O2653   1.261       .  A
N2650      O2654   1.263       .  A
C2655      C2656   1.399       .  A
C2655      C2660   1.400       .  A
C2655      H2662   1.086       .  S
C2656      C2657   1.412       .  A
C2657      C2658   1.404       .  A
C2657      N2664   1.439       .  S
C2658      C2659   1.411       .  A
C2658      H2663   1.083       .  S
C2659      C2660   1.421       .  A
C2660      N2661   1.427       .  S
N2661      O2665   1.262       .  A
N2661      O2666   1.262       .  A
N2664      O2667   1.263       .  A
N2664      O2668   1.263       .  A
C2669      C2670   1.399       .  A
C2669      C2674   1.402       .  A
C2669      H2676   1.084       .  S
C2670      C2671   1.414       .  A
C2671      C2672   1.406       .  A
C2671      N2678   1.443       .  S
C2672      C2673   1.407       .  A
C2672      H2677   1.082       .  S
C2673      C2674   1.418       .  A
C2674      N2675   1.434       .  S
N2675      O2679   1.262       .  A
N2675      O2680   1.263       .  A
N2678      O2681   1.262       .  A
N2678      O2682   1.263       .  A
C2683      C2684   1.401       .  A
C2683      C2688   1.402       .  A
C2683      H2690   1.085       .  S
C2684      C2685   1.414       .  A
C2685      C2686   1.402       .  A
C2685      N2692   1.436       .  S
C2686      C2687   1.409       .  A
C2686      H2691   1.082       .  S
C2687      C2688   1.420       .  A
C2688      N2689   1.430       .  S
N2689      O2693   1.263       .  A
N2689      O2694   1.262       .  A
N2692      O2695   1.262       .  A
N2692      O2696   1.263       .  A
C2697      C2698   1.405       .  A
C2697      C2702   1.401       .  A
C2697      H2704   1.083       .  S
C2698      C2699   1.416       .  A
C2699      C2700   1.403       .  A
C2699      N2706   1.437       .  S
C2700      C2701   1.401       .  A
C2700      H2705   1.084       .  S
C2701      C2702   1.412       .  A
C2702      N2703   1.440       .  S
N2703      O2707   1.263       .  A
N2703      O2708   1.263       .  A
N2706      O2709   1.263       .  A
N2706      O2710   1.263       .  A
C2711      C2712   1.399       .  A
C2711      C2716   1.399       .  A
C2711      H2718   1.086       .  S
C2712      C2713   1.412       .  A
C2713      C2714   1.404       .  A
C2713      N2720   1.438       .  S
C2714      C2715   1.411       .  A
C2714      H2719   1.083       .  S
C2715      C2716   1.421       .  A
C2716      N2717   1.427       .  S
N2717      O2721   1.262       .  A
N2717      O2722   1.262       .  A
N2720      O2723   1.263       .  A
N2720      O2724   1.263       .  A
C2725      C2726   1.401       .  A
C2725      C2730   1.404       .  A
C2725      H2732   1.084       .  S
C2726      C2727   1.414       .  A
C2727      C2728   1.404       .  A
C2727      N2734   1.442       .  S
C2728      C2729   1.402       .  A
C2728      H2733   1.084       .  S
C2729      C2730   1.416       .  A
C2730      N2731   1.442       .  S
N2731      O2735   1.263       .  A
N2731      O2736   1.262       .  A
N2734      O2737   1.263       .  A
N2734      O2738   1.263       .  A
C2739      C2740   1.402       .  A
C2739      C2744   1.401       .  A
C2739      H2746   1.084       .  S
C2740      C2741   1.414       .  A
C2741      C2742   1.403       .  A
C2741      N2748   1.437       .  S
C2742      C2743   1.406       .  A
C2742      H2747   1.083       .  S
C2743      C2744   1.416       .  A
C2744      N2745   1.432       .  S
N2745      O2749   1.262       .  A
N2745      O2750   1.263       .  A
N2748      O2751   1.263       .  A
N2748      O2752   1.263       .  A
C2753      C2754   1.408       .  A
C2753      C2758   1.399       .  A
C2753      H2760   1.082       .  S
C2754      C2755   1.420       .  A
C2755      C2756   1.402       .  A
C2755      N2762   1.431       .  S
C2756      C2757   1.401       .  A
C2756      H2761   1.084       .  S
C2757      C2758   1.408       .  A
C2758      N2759   1.429       .  S
N2759      O2763   1.262       .  A
N2759      O2764   1.262       .  A
N2762      O2765   1.262       .  A
N2762      O2766   1.262       .  A
C2767      C2768   1.404       .  A
C2767      C2772   1.405       .  A
C2767      H2774   1.083       .  S
C2768      C2769   1.416       .  A
C2769      C2770   1.404       .  A
C2769      N2776   1.438       .  S
C2770      C2771   1.400       .  A
C2770      H2775   1.084       .  S
C2771      C2772   1.414       .  A
C2772      N2773   1.443       .  S
N2773      O2777   1.263       .  A
N2773      O2778   1.262       .  A
N2776      O2779   1.263       .  A
N2776      O2780   1.263       .  A
C2781      C2782   1.410       .  A
C2781      C2786   1.405       .  A
C2781      H2788   1.081       .  S
C2782      C2783   1.418       .  A
C2783      C2784   1.400       .  A
C2783      N2790   1.431       .  S
C2784      C2785   1.402       .  A
C2784      H2789   1.084       .  S
C2785      C2786   1.413       .  A
C2786      N2787   1.437       .  S
N2787      O2791   1.263       .  A
N2787      O2792   1.262       .  A
N2790      O2793   1.262       .  A
N2790      O2794   1.263       .  A
C2795      C2796   1.407       .  A
C2795      C2800   1.405       .  A
C2795      H2802   1.082       .  S
C2796      C2797   1.418       .  A
C2797      C2798   1.404       .  A
C2797      N2804   1.436       .  S
C2798      C2799   1.402       .  A
C2798      H2803   1.084   1_655  S
C2799      C2800   1.413       .  A
C2800      N2801   1.439       .  S
N2801      O2805   1.263       .  A
N2801      O2806   1.263       .  A
N2804      O2807   1.263       .  A
N2804      O2808   1.263       .  A
C2809      C2810   1.403       .  A
C2809      C2814   1.407       .  A
C2809      H2816   1.084       .  S
C2810      C2811   1.412       .  A
C2811      C2812   1.400       .  A
C2811      N2818   1.433       .  S
C2812      C2813   1.401       .  A
C2812      H2817   1.084       .  S
C2813      C2814   1.416       .  A
C2814      N2815   1.441       .  S
N2815      O2819   1.263       .  A
N2815      O2820   1.263       .  A
N2818      O2821   1.261       .  A
N2818      O2822   1.262       .  A
C2823      C2824   1.406       .  A
C2823      C2828   1.402       .  A
C2823      H2830   1.082       .  S
C2824      C2825   1.418       .  A
C2825      C2826   1.403       .  A
C2825      N2832   1.433       .  S
C2826      C2827   1.404       .  A
C2826      H2831   1.083       .  S
C2827      C2828   1.415       .  A
C2828      N2829   1.435       .  S
N2829      O2833   1.263       .  A
N2829      O2834   1.263       .  A
N2832      O2835   1.262       .  A
N2832      O2836   1.263       .  A
C2837      C2838   1.408       .  A
C2837      C2842   1.403       .  A
C2837      H2844   1.082       .  S
C2838      C2839   1.418       .  A
C2839      C2840   1.403       .  A
C2839      N2846   1.434       .  S
C2840      C2841   1.402       .  A
C2840      H2845   1.084       .  S
C2841      C2842   1.413       .  A
C2842      N2843   1.439       .  S
N2843      O2847   1.263       .  A
N2843      O2848   1.263       .  A
N2846      O2849   1.262       .  A
N2846      O2850   1.263       .  A
C2851      C2852   1.405   1_545  A
C2851      C2856   1.405       .  A
C2851      H2858   1.083   1_545  S
C2852      C2853   1.415   1_565  A
C2853      C2854   1.403       .  A
C2853      N2860   1.438       .  S
C2854      C2855   1.400       .  A
C2854      H2859   1.084       .  S
C2855      C2856   1.414       .  A
C2856      N2857   1.443       .  S
N2857      O2861   1.263       .  A
N2857      O2862   1.263       .  A
N2860      O2863   1.263       .  A
N2860      O2864   1.263       .  A
C2865      C2866   1.405       .  A
C2865      C2870   1.404       .  A
C2865      H2872   1.083       .  S
C2866      C2867   1.416       .  A
C2867      C2868   1.404       .  A
C2867      N2874   1.435   1_554  S
C2868      C2869   1.402       .  A
C2868      H2873   1.084       .  S
C2869      C2870   1.416       .  A
C2870      N2871   1.440       .  S
N2871      O2875   1.263       .  A
N2871      O2876   1.261       .  A
N2874      O2877   1.263   1_556  A
N2874      O2878   1.262       .  A
C2879      C2880   1.404       .  A
C2879      C2884   1.404       .  A
C2879      H2886   1.083       .  S
C2880      C2881   1.412       .  A
C2881      C2882   1.401       .  A
C2881      N2888   1.433       .  S
C2882      C2883   1.405       .  A
C2882      H2887   1.083       .  S
C2883      C2884   1.417       .  A
C2884      N2885   1.436       .  S
N2885      O2889   1.263       .  A
N2885      O2890   1.262       .  A
N2888      O2891   1.262       .  A
N2888      O2892   1.262       .  A
C2893      C2894   1.404       .  A
C2893      C2898   1.405       .  A
C2893      H2900   1.083       .  S
C2894      C2895   1.416       .  A
C2895      C2896   1.403       .  A
C2895      N2902   1.439       .  S
C2896      C2897   1.401       .  A
C2896      H2901   1.084       .  S
C2897      C2898   1.414       .  A
C2898      N2899   1.441       .  S
N2899      O2903   1.263       .  A
N2899      O2904   1.263       .  A
N2902      O2905   1.263       .  A
N2902      O2906   1.263       .  A
C2907      C2908   1.402       .  A
C2907      C2912   1.403       .  A
C2907      H2914   1.084       .  S
C2908      C2909   1.413       .  A
C2909      C2910   1.404       .  A
C2909      N2916   1.440       .  S
C2910      C2911   1.405       .  A
C2910      H2915   1.083       .  S
C2911      C2912   1.416       .  A
C2912      N2913   1.438       .  S
N2913      O2917   1.263       .  A
N2913      O2918   1.263       .  A
N2916      O2919   1.263       .  A
N2916      O2920   1.263       .  A
C2921      C2922   1.408       .  A
C2921      C2926   1.400       .  A
C2921      H2928   1.082       .  S
C2922      C2923   1.419       .  A
C2923      C2924   1.403       .  A
C2923      N2930   1.433       .  S
C2924      C2925   1.401       .  A
C2924      H2929   1.084       .  S
C2925      C2926   1.410       .  A
C2926      N2927   1.434       .  S
N2927      O2931   1.262       .  A
N2927      O2932   1.261       .  A
N2930      O2933   1.262       .  A
N2930      O2934   1.263       .  A
C2935      C2936   1.402       .  A
C2935      C2940   1.403       .  A
C2935      H2942   1.084       .  S
C2936      C2937   1.413       .  A
C2937      C2938   1.402       .  A
C2937      N2944   1.437       .  S
C2938      C2939   1.405       .  A
C2938      H2943   1.083       .  S
C2939      C2940   1.416       .  A
C2940      N2941   1.435       .  S
N2941      O2945   1.262       .  A
N2941      O2946   1.263       .  A
N2944      O2947   1.261       .  A
N2944      O2948   1.262       .  A
C2949      C2950   1.401       .  A
C2949      C2954   1.402       .  A
C2949      H2956   1.084       .  S
C2950      C2951   1.413       .  A
C2951      C2952   1.404       .  A
C2951      N2958   1.440       .  S
C2952      C2953   1.406       .  A
C2952      H2957   1.083       .  S
C2953      C2954   1.416       .  A
C2954      N2955   1.436       .  S
N2955      O2959   1.263       .  A
N2955      O2960   1.263       .  A
N2958      O2961   1.263       .  A
N2958      O2962   1.263       .  A
C2963      C2964   1.401       .  A
C2963      C2968   1.403       .  A
C2963      H2970   1.084       .  S
C2964      C2965   1.413       .  A
C2965      C2966   1.402       .  A
C2965      N2972   1.440       .  S
C2966      C2967   1.404       .  A
C2966      H2971   1.083       .  S
C2967      C2968   1.416       .  A
C2968      N2969   1.438       .  S
N2969      O2973   1.263       .  A
N2969      O2974   1.263       .  A
N2972      O2975   1.263       .  A
N2972      O2976   1.263       .  A
C2977      C2978   1.400       .  A
C2977      C2982   1.402       .  A
C2977      H2984   1.084       .  S
C2978      C2979   1.408       .  A
C2979      C2980   1.400       .  A
C2979      N2986   1.429       .  S
C2980      C2981   1.408       .  A
C2980      H2985   1.082       .  S
C2981      C2982   1.420       .  A
C2982      N2983   1.432       .  S
N2983      O2987   1.263       .  A
N2983      O2988   1.262       .  A
N2986      O2989   1.262       .  A
N2986      O2990   1.262       .  A
C2991      C2992   1.406       .  A
C2991      C2996   1.401       .  A
C2991      H2998   1.082       .  S
C2992      C2993   1.417       .  A
C2993      C2994   1.403       .  A
C2993      N3000   1.433       .  S
C2994      C2995   1.404       .  A
C2994      H2999   1.083       .  S
C2995      C2996   1.415       .  A
C2996      N2997   1.436       .  S
N2997      O3001   1.263       .  A
N2997      O3002   1.263       .  A
N3000      O3003   1.262       .  A
N3000      O3004   1.263       .  A
C3005      C3006   1.402       .  A
C3005      C3010   1.404       .  A
C3005      H3012   1.084       .  S
C3006      C3007   1.414       .  A
C3007      C3008   1.404       .  A
C3007      N3014   1.440       .  S
C3008      C3009   1.403       .  A
C3008      H3013   1.084       .  S
C3009      C3010   1.415       .  A
C3010      N3011   1.438       .  S
N3011      O3015   1.263       .  A
N3011      O3016   1.261       .  A
N3014      O3017   1.263       .  A
N3014      O3018   1.263       .  A
C3019      C3020   1.404       .  A
C3019      C3024   1.404       .  A
C3019      H3026   1.083       .  S
C3020      C3021   1.415       .  A
C3021      C3022   1.404       .  A
C3021      N3028   1.439       .  S
C3022      C3023   1.401       .  A
C3022      H3027   1.084       .  S
C3023      C3024   1.413       .  A
C3024      N3025   1.443       .  S
N3025      O3029   1.263       .  A
N3025      O3030   1.263       .  A
N3028      O3031   1.263       .  A
N3028      O3032   1.263       .  A
C3033      C3034   1.401       .  A
C3033      C3038   1.404       .  A
C3033      H3040   1.084       .  S
C3034      C3035   1.413       .  A
C3035      C3036   1.405       .  A
C3035      N3042   1.442       .  S
C3036      C3037   1.405       .  A
C3036      H3041   1.083       .  S
C3037      C3038   1.416       .  A
C3038      N3039   1.438       .  S
N3039      O3043   1.263       .  A
N3039      O3044   1.263       .  A
N3042      O3045   1.263       .  A
N3042      O3046   1.263       .  A
C3047      C3048   1.403       .  A
C3047      C3052   1.405       .  A
C3047      H3054   1.084       .  S
C3048      C3049   1.414       .  A
C3049      C3050   1.402   1_556  A
C3049      N3056   1.440       .  S
C3050      C3051   1.400       .  A
C3050      H3055   1.084       .  S
C3051      C3052   1.414   1_554  A
C3052      N3053   1.443       .  S
N3053      O3057   1.263       .  A
N3053      O3058   1.262   1_556  A
N3056      O3059   1.263       .  A
N3056      O3060   1.263   1_556  A
C3061      C3062   1.402       .  A
C3061      C3066   1.404       .  A
C3061      H3068   1.084       .  S
C3062      C3063   1.415       .  A
C3063      C3064   1.403       .  A
C3063      N3070   1.440       .  S
C3064      C3065   1.403       .  A
C3064      H3069   1.084       .  S
C3065      C3066   1.415       .  A
C3066      N3067   1.439       .  S
N3067      O3071   1.263       .  A
N3067      O3072   1.263       .  A
N3070      O3073   1.261       .  A
N3070      O3074   1.263       .  A
C3075      C3076   1.402       .  A
C3075      C3080   1.403       .  A
C3075      H3082   1.084       .  S
C3076      C3077   1.413       .  A
C3077      C3078   1.404       .  A
C3077      N3084   1.439       .  S
C3078      C3079   1.406       .  A
C3078      H3083   1.083       .  S
C3079      C3080   1.417       .  A
C3080      N3081   1.437       .  S
N3081      O3085   1.263       .  A
N3081      O3086   1.263       .  A
N3084      O3087   1.263       .  A
N3084      O3088   1.263       .  A
C3089      C3090   1.407       .  A
C3089      C3094   1.401       .  A
C3089      H3096   1.081       .  S
C3090      C3091   1.418       .  A
C3091      C3092   1.402       .  A
C3091      N3098   1.432       .  S
C3092      C3093   1.403       .  A
C3092      H3097   1.083       .  S
C3093      C3094   1.415       .  A
C3094      N3095   1.435       .  S
N3095      O3099   1.263       .  A
N3095      O3100   1.263       .  A
N3098      O3101   1.262       .  A
N3098      O3102   1.263       .  A
C3103      C3104   1.408       .  A
C3103      C3108   1.402       .  A
C3103      H3110   1.082       .  S
C3104      C3105   1.419       .  A
C3105      C3106   1.403       .  A
C3105      N3112   1.434       .  S
C3106      C3107   1.401       .  A
C3106      H3111   1.084       .  S
C3107      C3108   1.411       .  A
C3108      N3109   1.434       .  S
N3109      O3113   1.262       .  A
N3109      O3114   1.261       .  A
N3112      O3115   1.263       .  A
N3112      O3116   1.263       .  A
C3117      C3118   1.402       .  A
C3117      C3122   1.404       .  A
C3117      H3124   1.084       .  S
C3118      C3119   1.409       .  A
C3119      C3120   1.399       .  A
C3119      N3126   1.431       .  S
C3120      C3121   1.401       .  A
C3120      H3125   1.084       .  S
C3121      C3122   1.416       .  A
C3122      N3123   1.443       .  S
N3123      O3127   1.263       .  A
N3123      O3128   1.262       .  A
N3126      O3129   1.262       .  A
N3126      O3130   1.262       .  A
C3131      C3132   1.401       .  A
C3131      C3136   1.403       .  A
C3131      H3138   1.084       .  S
C3132      C3133   1.415       .  A
C3133      C3134   1.403       .  A
C3133      N3140   1.441       .  S
C3134      C3135   1.403       .  A
C3134      H3139   1.084       .  S
C3135      C3136   1.414       .  A
C3136      N3137   1.439       .  S
N3137      O3141   1.263       .  A
N3137      O3142   1.263       .  A
N3140      O3143   1.262       .  A
N3140      O3144   1.263       .  A
C3145      C3146   1.401       .  A
C3145      C3150   1.404       .  A
C3145      H3152   1.084       .  S
C3146      C3147   1.414       .  A
C3147      C3148   1.404       .  A
C3147      N3154   1.442       .  S
C3148      C3149   1.401       .  A
C3148      H3153   1.084       .  S
C3149      C3150   1.414       .  A
C3150      N3151   1.442       .  S
N3151      O3155   1.263       .  A
N3151      O3156   1.263       .  A
N3154      O3157   1.262       .  A
N3154      O3158   1.263       .  A
C3159      C3160   1.406   1_565  A
C3159      C3164   1.403       .  A
C3159      H3166   1.083   1_565  S
C3160      C3161   1.417   1_545  A
C3161      C3162   1.402       .  A
C3161      N3168   1.436       .  S
C3162      C3163   1.402       .  A
C3162      H3167   1.084       .  S
C3163      C3164   1.413       .  A
C3164      N3165   1.438       .  S
N3165      O3169   1.263       .  A
N3165      O3170   1.263       .  A
N3168      O3171   1.263       .  A
N3168      O3172   1.263       .  A
C3173      C3174   1.403       .  A
C3173      C3178   1.402       .  A
C3173      H3180   1.083       .  S
C3174      C3175   1.413       .  A
C3175      C3176   1.402       .  A
C3175      N3182   1.437       .  S
C3176      C3177   1.408       .  A
C3176      H3181   1.081       .  S
C3177      C3178   1.418       .  A
C3178      N3179   1.432       .  S
N3179      O3183   1.263       .  A
N3179      O3184   1.262       .  A
N3182      O3185   1.263       .  A
N3182      O3186   1.263       .  A
C3187      C3188   1.404       .  A
C3187      C3192   1.403       .  A
C3187      H3194   1.084       .  S
C3188      C3189   1.414       .  A
C3189      C3190   1.401       .  A
C3189      N3196   1.436       .  S
C3190      C3191   1.404       .  A
C3190      H3195   1.083       .  S
C3191      C3192   1.416       .  A
C3192      N3193   1.436       .  S
N3193      O3197   1.263       .  A
N3193      O3198   1.263       .  A
N3196      O3199   1.263       .  A
N3196      O3200   1.263       .  A
C3201      C3202   1.404       .  A
C3201      C3206   1.400       .  A
C3201      H3208   1.083       .  S
C3202      C3203   1.416       .  A
C3203      C3204   1.404       .  A
C3203      N3210   1.435       .  S
C3204      C3205   1.407       .  A
C3204      H3209   1.082       .  S
C3205      C3206   1.417       .  A
C3206      N3207   1.432       .  S
N3207      O3211   1.262       .  A
N3207      O3212   1.262       .  A
N3210      O3213   1.263       .  A
N3210      O3214   1.263       .  A
C3215      C3216   1.401       .  A
C3215      C3220   1.405       .  A
C3215      H3222   1.084       .  S
C3216      C3217   1.414       .  A
C3217      C3218   1.405       .  A
C3217      N3224   1.442       .  S
C3218      C3219   1.402       .  A
C3218      H3223   1.084       .  S
C3219      C3220   1.416       .  A
C3220      N3221   1.442       .  S
N3221      O3225   1.263       .  A
N3221      O3226   1.261       .  A
N3224      O3227   1.263       .  A
N3224      O3228   1.263       .  A
C3229      C3230   1.399       .  A
C3229      C3234   1.401       .  A
C3229      H3236   1.084       .  S
C3230      C3231   1.415       .  A
C3231      C3232   1.407       .  A
C3231      N3238   1.443       .  S
C3232      C3233   1.406       .  A
C3232      H3237   1.083       .  S
C3233      C3234   1.416       .  A
C3234      N3235   1.434       .  S
N3235      O3239   1.262       .  A
N3235      O3240   1.263       .  A
N3238      O3241   1.262       .  A
N3238      O3242   1.263       .  A
C3243      C3244   1.401       .  A
C3243      C3248   1.400       .  A
C3243      H3250   1.084       .  S
C3244      C3245   1.414       .  A
C3245      C3246   1.405       .  A
C3245      N3252   1.437       .  S
C3246      C3247   1.410       .  A
C3246      H3251   1.081       .  S
C3247      C3248   1.420       .  A
C3248      N3249   1.430       .  S
N3249      O3253   1.263       .  A
N3249      O3254   1.262       .  A
N3252      O3255   1.262       .  A
N3252      O3256   1.263       .  A
C3257      C3258   1.404       .  A
C3257      C3262   1.405       .  A
C3257      H3264   1.083       .  S
C3258      C3259   1.414       .  A
C3259      C3260   1.402       .  A
C3259      N3266   1.436       .  S
C3260      C3261   1.400       .  A
C3260      H3265   1.084       .  S
C3261      C3262   1.415       .  A
C3262      N3263   1.443       .  S
N3263      O3267   1.263       .  A
N3263      O3268   1.262       .  A
N3266      O3269   1.263       .  A
N3266      O3270   1.263       .  A
C3271      C3272   1.402       .  A
C3271      C3276   1.405       .  A
C3271      H3278   1.084       .  S
C3272      C3273   1.408       .  A
C3273      C3274   1.399       .  A
C3273      N3280   1.432       .  S
C3274      C3275   1.407       .  A
C3274      H3279   1.082       .  S
C3275      C3276   1.420       .  A
C3276      N3277   1.433       .  S
N3277      O3281   1.263       .  A
N3277      O3282   1.263       .  A
N3280      O3283   1.262       .  A
N3280      O3284   1.262       .  A
C3285      C3286   1.401       .  A
C3285      C3290   1.404       .  A
C3285      H3292   1.084       .  S
C3286      C3287   1.415       .  A
C3287      C3288   1.405       .  A
C3287      N3294   1.443   1_655  S
C3288      C3289   1.402       .  A
C3288      H3293   1.084       .  S
C3289      C3290   1.415       .  A
C3290      N3291   1.441       .  S
N3291      O3295   1.263       .  A
N3291      O3296   1.263       .  A
N3294      O3297   1.262       .  A
N3294      O3298   1.263       .  A
C3299      C3300   1.406       .  A
C3299      C3304   1.405       .  A
C3299      H3306   1.083       .  S
C3300      C3301   1.417       .  A
C3301      C3302   1.402       .  A
C3301      N3308   1.437       .  S
C3302      C3303   1.399       .  A
C3302      H3307   1.084       .  S
C3303      C3304   1.414       .  A
C3304      N3305   1.442       .  S
N3305      O3309   1.263       .  A
N3305      O3310   1.262       .  A
N3308      O3311   1.263       .  A
N3308      O3312   1.263       .  A
C3313      C3314   1.402       .  A
C3313      C3318   1.403       .  A
C3313      H3320   1.084       .  S
C3314      C3315   1.414       .  A
C3315      C3316   1.403       .  A
C3315      N3322   1.437       .  S
C3316      C3317   1.407       .  A
C3316      H3321   1.082       .  S
C3317      C3318   1.420       .  A
C3318      N3319   1.433       .  S
N3319      O3323   1.263       .  A
N3319      O3324   1.262       .  A
N3322      O3325   1.262       .  A
N3322      O3326   1.263       .  A
C3327      C3328   1.400       .  A
C3327      C3332   1.403       .  A
C3327      H3334   1.084       .  S
C3328      C3329   1.408       .  A
C3329      C3330   1.399       .  A
C3329      N3336   1.431       .  S
C3330      C3331   1.408       .  A
C3330      H3335   1.082       .  S
C3331      C3332   1.420       .  A
C3332      N3333   1.433       .  S
N3333      O3337   1.262       .  A
N3333      O3338   1.263       .  A
N3336      O3339   1.262       .  A
N3336      O3340   1.262       .  A
C3341      C3342   1.399       .  A
C3341      C3346   1.402       .  A
C3341      H3348   1.084       .  S
C3342      C3343   1.414       .  A
C3343      C3344   1.406       .  A
C3343      N3350   1.442       .  S
C3344      C3345   1.407       .  A
C3344      H3349   1.082       .  S
C3345      C3346   1.418       .  A
C3346      N3347   1.433       .  S
N3347      O3351   1.262       .  A
N3347      O3352   1.263       .  A
N3350      O3353   1.262       .  A
N3350      O3354   1.263       .  A
C3355      C3356   1.402       .  A
C3355      C3360   1.405       .  A
C3355      H3362   1.084       .  S
C3356      C3357   1.414       .  A
C3357      C3358   1.405       .  A
C3357      N3364   1.440       .  S
C3358      C3359   1.405       .  A
C3358      H3363   1.083       .  S
C3359      C3360   1.417       .  A
C3360      N3361   1.437       .  S
N3361      O3365   1.263       .  A
N3361      O3366   1.263       .  A
N3364      O3367   1.263       .  A
N3364      O3368   1.263       .  A
C3369      C3370   1.405       .  A
C3369      C3374   1.405       .  A
C3369      H3376   1.083       .  S
C3370      C3371   1.416       .  A
C3371      C3372   1.404       .  A
C3371      N3378   1.438       .  S
C3372      C3373   1.402       .  A
C3372      H3377   1.084       .  S
C3373      C3374   1.414       .  A
C3374      N3375   1.440       .  S
N3375      O3379   1.263       .  A
N3375      O3380   1.263       .  A
N3378      O3381   1.263       .  A
N3378      O3382   1.263       .  A
C3383      C3384   1.398       .  A
C3383      C3388   1.401       .  A
C3383      H3390   1.085       .  S
C3384      C3385   1.412       .  A
C3385      C3386   1.406       .  A
C3385      N3392   1.439       .  S
C3386      C3387   1.412       .  A
C3386      H3391   1.081       .  S
C3387      C3388   1.421       .  A
C3388      N3389   1.427       .  S
N3389      O3393   1.262       .  A
N3389      O3394   1.262       .  A
N3392      O3395   1.263       .  A
N3392      O3396   1.263       .  A
C3397      C3398   1.405       .  A
C3397      C3402   1.405       .  A
C3397      H3404   1.083       .  S
C3398      C3399   1.416       .  A
C3399      C3400   1.403       .  A
C3399      N3406   1.435       .  S
C3400      C3401   1.402       .  A
C3400      H3405   1.084       .  S
C3401      C3402   1.416       .  A
C3402      N3403   1.441       .  S
N3403      O3407   1.263       .  A
N3403      O3408   1.261       .  A
N3406      O3409   1.263       .  A
N3406      O3410   1.262       .  A
C3411      C3412   1.403       .  A
C3411      C3416   1.404       .  A
C3411      H3418   1.084       .  S
C3412      C3413   1.416       .  A
C3413      C3414   1.404       .  A
C3413      N3420   1.439       .  S
C3414      C3415   1.401       .  A
C3414      H3419   1.084       .  S
C3415      C3416   1.414       .  A
C3416      N3417   1.443       .  S
N3417      O3421   1.263       .  A
N3417      O3422   1.262       .  A
N3420      O3423   1.263       .  A
N3420      O3424   1.263       .  A
C3425      C3426   1.401       .  A
C3425      C3430   1.403       .  A
C3425      H3432   1.084       .  S
C3426      C3427   1.411       .  A
C3427      C3428   1.403       .  A
C3427      N3434   1.436       .  S
C3428      C3429   1.409       .  A
C3428      H3433   1.081       .  S
C3429      C3430   1.420       .  A
C3430      N3431   1.431       .  S
N3431      O3435   1.262       .  A
N3431      O3436   1.262       .  A
N3434      O3437   1.262       .  A
N3434      O3438   1.263       .  A
C3439      C3440   1.404       .  A
C3439      C3444   1.406       .  A
C3439      H3446   1.083       .  S
C3440      C3441   1.410       .  A
C3441      C3442   1.399       .  A
C3441      N3448   1.430       .  S
C3442      C3443   1.400       .  A
C3442      H3447   1.084       .  S
C3443      C3444   1.416       .  A
C3444      N3445   1.442       .  S
N3445      O3449   1.263       .  A
N3445      O3450   1.262       .  A
N3448      O3451   1.262       .  A
N3448      O3452   1.262       .  A
C3453      C3454   1.403       .  A
C3453      C3458   1.404       .  A
C3453      H3460   1.084       .  S
C3454      C3455   1.409       .  A
C3455      C3456   1.402       .  A
C3455      N3462   1.429       .  S
C3456      C3457   1.409       .  A
C3456      H3461   1.082       .  S
C3457      C3458   1.419       .  A
C3458      N3459   1.433       .  S
N3459      O3463   1.262       .  A
N3459      O3464   1.263       .  A
N3462      O3465   1.262       .  A
N3462      O3466   1.262       .  A
C3467      C3468   1.401       .  A
C3467      C3472   1.405       .  A
C3467      H3474   1.084       .  S
C3468      C3469   1.412       .  A
C3469      C3470   1.403       .  A
C3469      N3476   1.436       .  S
C3470      C3471   1.409       .  A
C3470      H3475   1.081       .  S
C3471      C3472   1.421       .  A
C3472      N3473   1.432       .  S
N3473      O3477   1.263       .  A
N3473      O3478   1.262       .  A
N3476      O3479   1.261       .  A
N3476      O3480   1.263       .  A
C3481      C3482   1.403       .  A
C3481      C3486   1.403       .  A
C3481      H3488   1.084   1_655  S
C3482      C3483   1.414       .  A
C3483      C3484   1.404       .  A
C3483      N3490   1.437       .  S
C3484      C3485   1.407       .  A
C3484      H3489   1.082       .  S
C3485      C3486   1.418       .  A
C3486      N3487   1.435       .  S
N3487      O3491   1.263       .  A
N3487      O3492   1.263       .  A
N3490      O3493   1.262       .  A
N3490      O3494   1.263       .  A
C3495      C3496   1.401       .  A
C3495      C3500   1.403       .  A
C3495      H3502   1.084       .  S
C3496      C3497   1.411       .  A
C3497      C3498   1.401       .  A
C3497      N3504   1.435       .  S
C3498      C3499   1.408   1_545  A
C3498      H3503   1.081       .  S
C3499      C3500   1.419   1_565  A
C3500      N3501   1.432   1_545  S
N3501      O3505   1.262       .  A
N3501      O3506   1.263       .  A
N3504      O3507   1.262       .  A
N3504      O3508   1.263       .  A
C3509      C3510   1.404       .  A
C3509      C3514   1.405       .  A
C3509      H3516   1.083       .  S
C3510      C3511   1.414       .  A
C3511      C3512   1.401       .  A
C3511      N3518   1.437       .  S
C3512      C3513   1.401       .  A
C3512      H3517   1.084       .  S
C3513      C3514   1.417       .  A
C3514      N3515   1.444       .  S
N3515      O3519   1.263       .  A
N3515      O3520   1.261       .  A
N3518      O3521   1.263       .  A
N3518      O3522   1.263       .  A
C3523      C3524   1.403       .  A
C3523      C3528   1.406       .  A
C3523      H3530   1.084       .  S
C3524      C3525   1.409       .  A
C3525      C3526   1.399       .  A
C3525      N3532   1.429       .  S
C3526      C3527   1.401       .  A
C3526      H3531   1.084       .  S
C3527      C3528   1.416       .  A
C3528      N3529   1.442       .  S
N3529      O3533   1.263       .  A
N3529      O3534   1.262       .  A
N3532      O3535   1.262       .  A
N3532      O3536   1.262       .  A
C3537      C3538   1.404       .  A
C3537      C3542   1.404       .  A
C3537      H3544   1.083       .  S
C3538      C3539   1.416       .  A
C3539      C3540   1.404       .  A
C3539      N3546   1.438   1_554  S
C3540      C3541   1.400       .  A
C3540      H3545   1.084       .  S
C3541      C3542   1.413       .  A
C3542      N3543   1.442       .  S
N3543      O3547   1.263       .  A
N3543      O3548   1.263       .  A
N3546      O3549   1.263       .  A
N3546      O3550   1.263       .  A
C3551      C3552   1.402       .  A
C3551      C3556   1.402       .  A
C3551      H3558   1.084       .  S
C3552      C3553   1.413       .  A
C3553      C3554   1.404   1_455  A
C3553      N3560   1.436       .  S
C3554      C3555   1.409       .  A
C3554      H3559   1.081       .  S
C3555      C3556   1.419   1_655  A
C3556      N3557   1.432   1_455  S
N3557      O3561   1.263       .  A
N3557      O3562   1.262       .  A
N3560      O3563   1.262       .  A
N3560      O3564   1.263       .  A
C3565      C3566   1.405       .  A
C3565      C3570   1.405       .  A
C3565      H3572   1.083       .  S
C3566      C3567   1.416       .  A
C3567      C3568   1.402       .  A
C3567      N3574   1.438       .  S
C3568      C3569   1.400       .  A
C3568      H3573   1.084       .  S
C3569      C3570   1.413       .  A
C3570      N3571   1.442       .  S
N3571      O3575   1.263       .  A
N3571      O3576   1.263       .  A
N3574      O3577   1.263       .  A
N3574      O3578   1.263       .  A
C3579      C3580   1.404       .  A
C3579      C3584   1.406       .  A
C3579      H3586   1.083       .  S
C3580      C3581   1.414       .  A
C3581      C3582   1.402       .  A
C3581      N3588   1.436       .  S
C3582      C3583   1.402       .  A
C3582      H3587   1.084       .  S
C3583      C3584   1.418       .  A
C3584      N3585   1.444       .  S
N3585      O3589   1.263       .  A
N3585      O3590   1.261       .  A
N3588      O3591   1.263       .  A
N3588      O3592   1.263       .  A
C3593      C3594   1.407       .  A
C3593      C3598   1.405       .  A
C3593      H3600   1.082       .  S
C3594      C3595   1.417       .  A
C3595      C3596   1.402       .  A
C3595      N3602   1.435       .  S
C3596      C3597   1.399       .  A
C3596      H3601   1.084       .  S
C3597      C3598   1.413       .  A
C3598      N3599   1.442       .  S
N3599      O3603   1.263       .  A
N3599      O3604   1.263       .  A
N3602      O3605   1.263       .  A
N3602      O3606   1.263       .  A
C3607      C3608   1.402       .  A
C3607      C3612   1.403       .  A
C3607      H3614   1.084       .  S
C3608      C3609   1.413       .  A
C3609      C3610   1.404       .  A
C3609      N3616   1.437       .  S
C3610      C3611   1.408       .  A
C3610      H3615   1.082       .  S
C3611      C3612   1.419       .  A
C3612      N3613   1.433       .  S
N3613      O3617   1.263       .  A
N3613      O3618   1.262       .  A
N3616      O3619   1.262       .  A
N3616      O3620   1.263       .  A
C3621      C3622   1.405       .  A
C3621      C3626   1.407       .  A
C3621      H3628   1.083       .  S
C3622      C3623   1.415       .  A
C3623      C3624   1.402       .  A
C3623      N3630   1.436       .  S
C3624      C3625   1.400       .  A
C3624      H3629   1.084       .  S
C3625      C3626   1.415       .  A
C3626      N3627   1.444       .  S
N3627      O3631   1.263       .  A
N3627      O3632   1.262       .  A
N3630      O3633   1.263       .  A
N3630      O3634   1.262       .  A
C3635      C3636   1.402       .  A
C3635      C3640   1.405       .  A
C3635      H3642   1.084       .  S
C3636      C3637   1.414       .  A
C3637      C3638   1.404       .  A
C3637      N3644   1.439       .  S
C3638      C3639   1.406       .  A
C3638      H3643   1.083       .  S
C3639      C3640   1.417       .  A
C3640      N3641   1.436       .  S
N3641      O3645   1.263       .  A
N3641      O3646   1.263       .  A
N3644      O3647   1.263       .  A
N3644      O3648   1.263       .  A
C3649      C3650   1.401       .  A
C3649      C3654   1.401       .  A
C3649      H3656   1.084       .  S
C3650      C3651   1.413       .  A
C3651      C3652   1.405       .  A
C3651      N3658   1.435       .  S
C3652      C3653   1.410       .  A
C3652      H3657   1.081       .  S
C3653      C3654   1.420       .  A
C3654      N3655   1.428       .  S
N3655      O3659   1.262       .  A
N3655      O3660   1.262       .  A
N3658      O3661   1.262       .  A
N3658      O3662   1.263       .  A
C3663      C3664   1.403       .  A
C3663      C3668   1.407       .  A
C3663      H3670   1.084       .  S
C3664      C3665   1.414       .  A
C3665      C3666   1.404       .  A
C3665      N3672   1.440       .  S
C3666      C3667   1.401       .  A
C3666      H3671   1.084       .  S
C3667      C3668   1.416       .  A
C3668      N3669   1.444       .  S
N3669      O3673   1.263       .  A
N3669      O3674   1.262       .  A
N3672      O3675   1.263       .  A
N3672      O3676   1.263       .  A
C3677      C3678   1.401       .  A
C3677      C3682   1.404       .  A
C3677      H3684   1.084       .  S
C3678      C3679   1.415       .  A
C3679      C3680   1.406       .  A
C3679      N3686   1.443       .  S
C3680      C3681   1.406       .  A
C3680      H3685   1.083       .  S
C3681      C3682   1.416       .  A
C3682      N3683   1.435       .  S
N3683      O3687   1.262       .  A
N3683      O3688   1.263       .  A
N3686      O3689   1.262       .  A
N3686      O3690   1.263       .  A
C3691      C3692   1.404       .  A
C3691      C3696   1.403       .  A
C3691      H3698   1.083       .  S
C3692      C3693   1.416       .  A
C3693      C3694   1.402       .  A
C3693      N3700   1.435       .  S
C3694      C3695   1.405       .  A
C3694      H3699   1.083       .  S
C3695      C3696   1.417       .  A
C3696      N3697   1.435       .  S
N3697      O3701   1.263       .  A
N3697      O3702   1.263       .  A
N3700      O3703   1.263       .  A
N3700      O3704   1.263       .  A
C3705      C3706   1.402       .  A
C3705      C3710   1.403       .  A
C3705      H3712   1.084       .  S
C3706      C3707   1.413       .  A
C3707      C3708   1.404       .  A
C3707      N3714   1.438       .  S
C3708      C3709   1.407       .  A
C3708      H3713   1.082       .  S
C3709      C3710   1.418       .  A
C3710      N3711   1.435       .  S
N3711      O3715   1.263       .  A
N3711      O3716   1.263       .  A
N3714      O3717   1.262       .  A
N3714      O3718   1.263       .  A
C3719      C3720   1.406       .  A
C3719      C3724   1.406       .  A
C3719      H3726   1.083       .  S
C3720      C3721   1.415       .  A
C3721      C3722   1.401       .  A
C3721      N3728   1.435       .  S
C3722      C3723   1.399       .  A
C3722      H3727   1.084       .  S
C3723      C3724   1.414       .  A
C3724      N3725   1.443       .  S
N3725      O3729   1.263       .  A
N3725      O3730   1.262       .  A
N3728      O3731   1.263       .  A
N3728      O3732   1.262       .  A
C3733      C3734   1.400       .  A
C3733      C3738   1.405       .  A
C3733      H3740   1.084       .  S
C3734      C3735   1.414       .  A
C3735      C3736   1.405       .  A
C3735      N3742   1.443       .  S
C3736      C3737   1.403       .  A
C3736      H3741   1.084       .  S
C3737      C3738   1.417       .  A
C3738      N3739   1.442       .  S
N3739      O3743   1.263       .  A
N3739      O3744   1.261       .  A
N3742      O3745   1.263       .  A
N3742      O3746   1.263       .  A
C3747      C3748   1.405       .  A
C3747      C3752   1.407       .  A
C3747      H3754   1.083       .  S
C3748      C3749   1.414       .  A
C3749      C3750   1.401       .  A
C3749      N3756   1.435       .  S
C3750      C3751   1.401       .  A
C3750      H3755   1.084       .  S
C3751      C3752   1.417       .  A
C3752      N3753   1.444       .  S
N3753      O3757   1.263       .  A
N3753      O3758   1.262       .  A
N3756      O3759   1.262       .  A
N3756      O3760   1.262       .  A
C3761      C3762   1.402       .  A
C3761      C3766   1.404       .  A
C3761      H3768   1.084       .  S
C3762      C3763   1.411       .  A
C3763      C3764   1.402       .  A
C3763      N3770   1.433       .  S
C3764      C3765   1.407       .  A
C3764      H3769   1.083       .  S
C3765      C3766   1.418       .  A
C3766      N3767   1.434       .  S
N3767      O3771   1.262       .  A
N3767      O3772   1.263       .  A
N3770      O3773   1.261       .  A
N3770      O3774   1.262       .  A
C3775      C3776   1.401       .  A
C3775      C3780   1.400       .  A
C3775      H3782   1.084       .  S
C3776      C3777   1.416       .  A
C3777      C3778   1.407       .  A
C3777      N3784   1.442       .  S
C3778      C3779   1.403       .  A
C3778      H3783   1.084       .  S
C3779      C3780   1.411       .  A
C3780      N3781   1.431       .  S
N3781      O3785   1.262       .  A
N3781      O3786   1.262       .  A
N3784      O3787   1.263       .  A
N3784      O3788   1.263       .  A
C3789      C3790   1.400       .  A
C3789      C3794   1.404       .  A
C3789      H3796   1.084       .  S
C3790      C3791   1.414       .  A
C3791      C3792   1.405       .  A
C3791      N3798   1.442       .  S
C3792      C3793   1.405       .  A
C3792      H3797   1.083       .  S
C3793      C3794   1.416       .  A
C3794      N3795   1.438       .  S
N3795      O3799   1.263       .  A
N3795      O3800   1.263       .  A
N3798      O3801   1.263       .  A
N3798      O3802   1.263       .  A
C3803      C3804   1.402   1_565  A
C3803      C3808   1.405       .  A
C3803      H3810   1.084       .  S
C3804      C3805   1.415       .  A
C3805      C3806   1.406   1_545  A
C3805      N3812   1.443       .  S
C3806      C3807   1.403       .  A
C3806      H3811   1.084       .  S
C3807      C3808   1.415       .  A
C3808      N3809   1.440       .  S
N3809      O3813   1.263       .  A
N3809      O3814   1.263       .  A
N3812      O3815   1.262       .  A
N3812      O3816   1.263       .  A
C3817      C3818   1.407       .  A
C3817      C3822   1.405   1_554  A
C3817      H3824   1.082       .  S
C3818      C3819   1.419   1_554  A
C3819      C3820   1.403       .  A
C3819      N3826   1.435       .  S
C3820      C3821   1.401       .  A
C3820      H3825   1.084       .  S
C3821      C3822   1.414       .  A
C3822      N3823   1.438       .  S
N3823      O3827   1.263       .  A
N3823      O3828   1.263       .  A
N3826      O3829   1.263   1_556  A
N3826      O3830   1.263       .  A
C3831      C3832   1.407       .  A
C3831      C3836   1.407       .  A
C3831      H3838   1.082       .  S
C3832      C3833   1.417       .  A
C3833      C3834   1.403       .  A
C3833      N3840   1.435       .  S
C3834      C3835   1.400       .  A
C3834      H3839   1.084       .  S
C3835      C3836   1.416       .  A
C3836      N3837   1.444       .  S
N3837      O3841   1.263       .  A
N3837      O3842   1.262       .  A
N3840      O3843   1.263       .  A
N3840      O3844   1.262       .  A
C3845      C3846   1.403       .  A
C3845      C3850   1.401       .  A
C3845      H3852   1.084       .  S
C3846      C3847   1.414       .  A
C3847      C3848   1.403       .  A
C3847      N3854   1.436       .  S
C3848      C3849   1.408       .  A
C3848      H3853   1.082       .  S
C3849      C3850   1.417       .  A
C3850      N3851   1.429       .  S
N3851      O3855   1.262       .  A
N3851      O3856   1.262       .  A
N3854      O3857   1.263       .  A
N3854      O3858   1.263       .  A
C3859      C3860   1.401       .  A
C3859      C3864   1.405       .  A
C3859      H3866   1.084       .  S
C3860      C3861   1.412       .  A
C3861      C3862   1.403       .  A
C3861      N3868   1.442       .  S
C3862      C3863   1.401       .  A
C3862      H3867   1.084       .  S
C3863      C3864   1.416       .  A
C3864      N3865   1.444       .  S
N3865      O3869   1.263       .  A
N3865      O3870   1.262       .  A
N3868      O3871   1.263       .  A
N3868      O3872   1.263       .  A
C3873      C3874   1.405       .  A
C3873      C3878   1.403       .  A
C3873      H3880   1.083       .  S
C3874      C3875   1.416       .  A
C3875      C3876   1.402   1_455  A
C3875      N3882   1.434       .  S
C3876      C3877   1.405       .  A
C3876      H3881   1.082       .  S
C3877      C3878   1.416   1_655  A
C3878      N3879   1.435   1_455  S
N3879      O3883   1.263       .  A
N3879      O3884   1.263       .  A
N3882      O3885   1.263       .  A
N3882      O3886   1.263       .  A
C3887      C3888   1.402       .  A
C3887      C3892   1.403       .  A
C3887      H3894   1.084       .  S
C3888      C3889   1.411       .  A
C3889      C3890   1.400       .  A
C3889      N3896   1.433       .  S
C3890      C3891   1.406       .  A
C3890      H3895   1.083       .  S
C3891      C3892   1.419       .  A
C3892      N3893   1.433       .  S
N3893      O3897   1.263       .  A
N3893      O3898   1.262       .  A
N3896      O3899   1.262       .  A
N3896      O3900   1.262       .  A
C3901      C3902   1.406       .  A
C3901      C3906   1.405       .  A
C3901      H3908   1.083       .  S
C3902      C3903   1.417       .  A
C3903      C3904   1.402       .  A
C3903      N3910   1.437       .  S
C3904      C3905   1.400       .  A
C3904      H3909   1.084       .  S
C3905      C3906   1.413       .  A
C3906      N3907   1.441       .  S
N3907      O3911   1.263       .  A
N3907      O3912   1.263       .  A
N3910      O3913   1.263       .  A
N3910      O3914   1.263       .  A
C3915      C3916   1.404       .  A
C3915      C3920   1.404       .  A
C3915      H3922   1.083       .  S
C3916      C3917   1.415       .  A
C3917      C3918   1.404       .  A
C3917      N3924   1.436       .  S
C3918      C3919   1.402   1_545  A
C3918      H3923   1.084       .  S
C3919      C3920   1.416   1_565  A
C3920      N3921   1.441   1_545  S
N3921      O3925   1.263       .  A
N3921      O3926   1.261       .  A
N3924      O3927   1.263       .  A
N3924      O3928   1.263       .  A
C3929      C3930   1.405       .  A
C3929      C3934   1.405       .  A
C3929      H3936   1.083       .  S
C3930      C3931   1.415       .  A
C3931      C3932   1.403       .  A
C3931      N3938   1.436       .  S
C3932      C3933   1.402       .  A
C3932      H3937   1.084       .  S
C3933      C3934   1.416       .  A
C3934      N3935   1.439       .  S
N3935      O3939   1.263       .  A
N3935      O3940   1.261       .  A
N3938      O3941   1.263       .  A
N3938      O3942   1.262       .  A
C3943      C3944   1.407       .  A
C3943      C3948   1.404       .  A
C3943      H3950   1.083       .  S
C3944      C3945   1.417       .  A
C3945      C3946   1.402       .  A
C3945      N3952   1.436       .  S
C3946      C3947   1.401       .  A
C3946      H3951   1.084       .  S
C3947      C3948   1.413       .  A
C3948      N3949   1.439       .  S
N3949      O3953   1.263       .  A
N3949      O3954   1.262       .  A
N3952      O3955   1.263       .  A
N3952      O3956   1.263       .  A
C3957      C3958   1.409       .  A
C3957      C3962   1.405       .  A
C3957      H3964   1.081       .  S
C3958      C3959   1.419       .  A
C3959      C3960   1.402       .  A
C3959      N3966   1.434       .  S
C3960      C3961   1.399       .  A
C3960      H3965   1.084       .  S
C3961      C3962   1.412       .  A
C3962      N3963   1.440       .  S
N3963      O3967   1.263       .  A
N3963      O3968   1.263       .  A
N3966      O3969   1.263       .  A
N3966      O3970   1.263       .  A
C3971      C3972   1.408       .  A
C3971      C3976   1.403       .  A
C3971      H3978   1.081       .  S
C3972      C3973   1.418       .  A
C3973      C3974   1.401       .  A
C3973      N3980   1.432       .  S
C3974      C3975   1.403       .  A
C3974      H3979   1.083       .  S
C3975      C3976   1.414       .  A
C3976      N3977   1.436       .  S
N3977      O3981   1.263       .  A
N3977      O3982   1.263       .  A
N3980      O3983   1.262       .  A
N3980      O3984   1.263       .  A
C3985      C3986   1.405       .  A
C3985      C3990   1.402       .  A
C3985      H3992   1.083       .  S
C3986      C3987   1.415       .  A
C3987      C3988   1.403       .  A
C3987      N3994   1.436       .  S
C3988      C3989   1.405       .  A
C3988      H3993   1.083       .  S
C3989      C3990   1.416       .  A
C3990      N3991   1.435       .  S
N3991      O3995   1.263       .  A
N3991      O3996   1.263       .  A
N3994      O3997   1.263       .  A
N3994      O3998   1.263       .  A
C3999      C4000   1.402       .  A
C3999      C4004   1.401       .  A
C3999      H4006   1.084       .  S
C4000      C4001   1.417       .  A
C4001      C4002   1.405       .  A
C4001      N4008   1.442       .  S
C4002      C4003   1.404       .  A
C4002      H4007   1.083       .  S
C4003      C4004   1.412       .  A
C4004      N4005   1.432       .  S
N4005      O4009   1.262       .  A
N4005      O4010   1.262       .  A
N4008      O4011   1.261       .  A
N4008      O4012   1.263       .  A
C4013      C4014   1.405       .  A
C4013      C4018   1.406       .  A
C4013      H4020   1.083       .  S
C4014      C4015   1.415       .  A
C4015      C4016   1.400       .  A
C4015      N4022   1.436       .  S
C4016      C4017   1.399       .  A
C4016      H4021   1.084       .  S
C4017      C4018   1.415       .  A
C4018      N4019   1.444       .  S
N4019      O4023   1.263       .  A
N4019      O4024   1.262       .  A
N4022      O4025   1.263       .  A
N4022      O4026   1.262       .  A
C4027      C4028   1.404       .  A
C4027      C4032   1.405       .  A
C4027      H4034   1.083       .  S
C4028      C4029   1.414       .  A
C4029      C4030   1.402       .  A
C4029      N4036   1.436       .  S
C4030      C4031   1.401       .  A
C4030      H4035   1.084       .  S
C4031      C4032   1.417       .  A
C4032      N4033   1.444       .  S
N4033      O4037   1.263       .  A
N4033      O4038   1.261       .  A
N4036      O4039   1.263       .  A
N4036      O4040   1.262       .  A
C4041      C4042   1.401       .  A
C4041      C4046   1.403       .  A
C4041      H4048   1.084       .  S
C4042      C4043   1.413       .  A
C4043      C4044   1.401       .  A
C4043      N4050   1.438       .  S
C4044      C4045   1.405       .  A
C4044      H4049   1.083       .  S
C4045      C4046   1.416       .  A
C4046      N4047   1.435       .  S
N4047      O4051   1.262       .  A
N4047      O4052   1.263       .  A
N4050      O4053   1.261       .  A
N4050      O4054   1.263       .  A
C4055      C4056   1.405       .  A
C4055      C4060   1.404       .  A
C4055      H4062   1.083       .  S
C4056      C4057   1.416       .  A
C4057      C4058   1.402       .  A
C4057      N4064   1.437       .  S
C4058      C4059   1.401       .  A
C4058      H4063   1.084       .  S
C4059      C4060   1.413       .  A
C4060      N4061   1.440       .  S
N4061      O4065   1.263       .  A
N4061      O4066   1.263       .  A
N4064      O4067   1.263       .  A
N4064      O4068   1.263       .  A
C4069      C4070   1.405       .  A
C4069      C4074   1.404       .  A
C4069      H4076   1.083       .  S
C4070      C4071   1.415       .  A
C4071      C4072   1.401       .  A
C4071      N4078   1.436       .  S
C4072      C4073   1.400       .  A
C4072      H4077   1.084       .  S
C4073      C4074   1.416       .  A
C4074      N4075   1.443       .  S
N4075      O4079   1.263       .  A
N4075      O4080   1.261       .  A
N4078      O4081   1.263       .  A
N4078      O4082   1.262       .  A
C4083      C4084   1.401       .  A
C4083      C4088   1.403       .  A
C4083      H4090   1.084       .  S
C4084      C4085   1.413       .  A
C4085      C4086   1.403       .  A
C4085      N4092   1.441       .  S
C4086      C4087   1.402       .  A
C4086      H4091   1.084       .  S
C4087      C4088   1.415       .  A
C4088      N4089   1.439       .  S
N4089      O4093   1.263       .  A
N4089      O4094   1.261       .  A
N4092      O4095   1.263       .  A
N4092      O4096   1.263       .  A
C4097      C4098   1.407       .  A
C4097      C4102   1.405       .  A
C4097      H4104   1.082       .  S
C4098      C4099   1.418       .  A
C4099      C4100   1.403       .  A
C4099      N4106   1.435       .  S
C4100      C4101   1.401       .  A
C4100      H4105   1.084       .  S
C4101      C4102   1.413       .  A
C4102      N4103   1.439       .  S
N4103      O4107   1.263       .  A
N4103      O4108   1.263       .  A
N4106      O4109   1.263       .  A
N4106      O4110   1.263       .  A
C4111      C4112   1.403       .  A
C4111      C4116   1.407       .  A
C4111      H4118   1.084       .  S
C4112      C4113   1.411       .  A
C4113      C4114   1.400       .  A
C4113      N4120   1.431       .  S
C4114      C4115   1.401       .  A
C4114      H4119   1.084       .  S
C4115      C4116   1.417       .  A
C4116      N4117   1.444       .  S
N4117      O4121   1.263       .  A
N4117      O4122   1.262       .  A
N4120      O4123   1.261       .  A
N4120      O4124   1.262       .  A
C4125      C4126   1.408       .  A
C4125      C4130   1.402       .  A
C4125      H4132   1.082       .  S
C4126      C4127   1.419       .  A
C4127      C4128   1.404       .  A
C4127      N4134   1.433       .  S
C4128      C4129   1.401       .  A
C4128      H4133   1.084       .  S
C4129      C4130   1.411       .  A
C4130      N4131   1.433       .  S
N4131      O4135   1.262       .  A
N4131      O4136   1.261       .  A
N4134      O4137   1.262       .  A
N4134      O4138   1.263       .  A
C4139      C4140   1.401       .  A
C4139      C4144   1.404       .  A
C4139      H4146   1.084       .  S
C4140      C4141   1.416       .  A
C4141      C4142   1.403       .  A
C4141      N4148   1.441       .  S
C4142      C4143   1.400       .  A
C4142      H4147   1.084       .  S
C4143      C4144   1.414       .  A
C4144      N4145   1.442       .  S
N4145      O4149   1.263       .  A
N4145      O4150   1.263       .  A
N4148      O4151   1.262       .  A
N4148      O4152   1.263       .  A
C4153      C4154   1.399       .  A
C4153      C4158   1.399   1_655  A
C4153      H4160   1.085       .  S
C4154      C4155   1.409       .  A
C4155      C4156   1.401   1_655  A
C4155      N4162   1.433       .  S
C4156      C4157   1.411       .  A
C4156      H4161   1.082       .  S
C4157      C4158   1.421       .  A
C4158      N4159   1.426       .  S
N4159      O4163   1.262       .  A
N4159      O4164   1.262       .  A
N4162      O4165   1.262       .  A
N4162      O4166   1.262       .  A
C4167      C4168   1.402       .  A
C4167      C4172   1.405       .  A
C4167      H4174   1.084       .  S
C4168      C4169   1.415       .  A
C4169      C4170   1.404       .  A
C4169      N4176   1.441       .  S
C4170      C4171   1.401   1_565  A
C4170      H4175   1.084       .  S
C4171      C4172   1.414   1_545  A
C4172      N4173   1.443   1_565  S
N4173      O4177   1.263       .  A
N4173      O4178   1.262       .  A
N4176      O4179   1.262       .  A
N4176      O4180   1.263       .  A
C4181      C4182   1.406       .  A
C4181      C4186   1.403       .  A
C4181      H4188   1.083       .  S
C4182      C4183   1.417       .  A
C4183      C4184   1.402       .  A
C4183      N4190   1.437       .  S
C4184      C4185   1.399       .  A
C4184      H4189   1.084       .  S
C4185      C4186   1.412       .  A
C4186      N4187   1.441       .  S
N4187      O4191   1.263       .  A
N4187      O4192   1.263       .  A
N4190      O4193   1.263       .  A
N4190      O4194   1.263       .  A
C4195      C4196   1.401       .  A
C4195      C4200   1.401       .  A
C4195      H4202   1.084       .  S
C4196      C4197   1.413       .  A
C4197      C4198   1.403       .  A
C4197      N4204   1.436       .  S
C4198      C4199   1.409       .  A
C4198      H4203   1.081       .  S
C4199      C4200   1.419       .  A
C4200      N4201   1.429       .  S
N4201      O4205   1.262       .  A
N4201      O4206   1.262       .  A
N4204      O4207   1.263       .  A
N4204      O4208   1.263       .  A
C4209      C4210   1.405       .  A
C4209      C4214   1.403       .  A
C4209      H4216   1.083       .  S
C4210      C4211   1.416       .  A
C4211      C4212   1.401       .  A
C4211      N4218   1.435       .  S
C4212      C4213   1.405       .  A
C4212      H4217   1.082       .  S
C4213      C4214   1.416       .  A
C4214      N4215   1.435       .  S
N4215      O4219   1.263       .  A
N4215      O4220   1.263       .  A
N4218      O4221   1.263       .  A
N4218      O4222   1.263       .  A
C4223      C4224   1.403       .  A
C4223      C4228   1.406       .  A
C4223      H4230   1.084       .  S
C4224      C4225   1.415       .  A
C4225      C4226   1.402       .  A
C4225      N4232   1.438       .  S
C4226      C4227   1.400       .  A
C4226      H4231   1.084       .  S
C4227      C4228   1.414       .  A
C4228      N4229   1.443       .  S
N4229      O4233   1.263       .  A
N4229      O4234   1.262       .  A
N4232      O4235   1.261       .  A
N4232      O4236   1.263       .  A
C4237      C4238   1.400       .  A
C4237      C4242   1.403       .  A
C4237      H4244   1.084       .  S
C4238      C4239   1.412       .  A
C4239      C4240   1.404       .  A
C4239      N4246   1.441       .  S
C4240      C4241   1.408       .  A
C4240      H4245   1.082       .  S
C4241      C4242   1.418       .  A
C4242      N4243   1.435       .  S
N4243      O4247   1.263       .  A
N4243      O4248   1.263       .  A
N4246      O4249   1.263       .  A
N4246      O4250   1.263       .  A
C4251      C4252   1.406   1_455  A
C4251      C4256   1.404       .  A
C4251      H4258   1.083   1_455  S
C4252      C4253   1.417       .  A
C4253      C4254   1.402   1_655  A
C4253      N4260   1.436       .  S
C4254      C4255   1.401       .  A
C4254      H4259   1.084       .  S
C4255      C4256   1.413       .  A
C4256      N4257   1.440       .  S
N4257      O4261   1.263       .  A
N4257      O4262   1.263       .  A
N4260      O4263   1.263       .  A
N4260      O4264   1.263       .  A
C4265      C4266   1.406       .  A
C4265      C4270   1.400   1_545  A
C4265      H4272   1.083       .  S
C4266      C4267   1.418       .  A
C4267      C4268   1.404       .  A
C4267      N4274   1.434       .  S
C4268      C4269   1.401   1_545  A
C4268      H4273   1.084       .  S
C4269      C4270   1.410       .  A
C4270      N4271   1.434       .  S
N4271      O4275   1.262       .  A
N4271      O4276   1.261       .  A
N4274      O4277   1.263       .  A
N4274      O4278   1.262       .  A
C4279      C4280   1.402       .  A
C4279      C4284   1.404       .  A
C4279      H4286   1.084       .  S
C4280      C4281   1.414       .  A
C4281      C4282   1.403       .  A
C4281      N4288   1.438       .  S
C4282      C4283   1.406       .  A
C4282      H4287   1.083       .  S
C4283      C4284   1.418       .  A
C4284      N4285   1.436       .  S
N4285      O4289   1.263       .  A
N4285      O4290   1.263       .  A
N4288      O4291   1.263       .  A
N4288      O4292   1.263       .  A
C4293      C4294   1.400       .  A
C4293      C4298   1.402       .  A
C4293      H4300   1.084       .  S
C4294      C4295   1.415       .  A
C4295      C4296   1.405       .  A
C4295      N4302   1.443       .  S
C4296      C4297   1.403       .  A
C4296      H4301   1.084       .  S
C4297      C4298   1.415       .  A
C4298      N4299   1.436       .  S
N4299      O4303   1.263       .  A
N4299      O4304   1.261       .  A
N4302      O4305   1.262       .  A
N4302      O4306   1.263       .  A
C4307      C4308   1.399       .  A
C4307      C4312   1.401       .  A
C4307      H4314   1.085       .  S
C4308      C4309   1.412       .  A
C4309      C4310   1.404       .  A
C4309      N4316   1.439       .  S
C4310      C4311   1.409       .  A
C4310      H4315   1.081       .  S
C4311      C4312   1.419       .  A
C4312      N4313   1.428       .  S
N4313      O4317   1.262       .  A
N4313      O4318   1.262       .  A
N4316      O4319   1.261       .  A
N4316      O4320   1.263       .  A
