geometry optimzed in LAMMPS
_audit_creation_date              2020-12-01 
_audit_creation_method            'lammps2cif' 
_symmetry_space_group_name_H-M    'P1' 
_symmetry_Int_Tables_number       1 
_symmetry_cell_setting            triclinic 
loop_ 
_symmetry_equiv_pos_as_xyz 
  x,y,z 
_cell_length_a                    36.0043059 
_cell_length_b                    36.11355634524779 
_cell_length_c                    36.07657814766233 
_cell_angle_alpha                 89.19338719632958 
_cell_angle_beta                  90.13778010776703 
_cell_angle_gamma                 89.60110979472759 
loop_ 
_atom_site_label 
_atom_site_type_symbol 
_atom_site_fract_x 
_atom_site_fract_y 
_atom_site_fract_z 
_atom_site_charge 
C1          C  0.12597089  0.83499547  0.53188228     0.01900
C2          C  0.10510979  0.83120668  0.49878074     0.01900
C3          C  0.12306644  0.84210812  0.46515610     0.01900
C4          C  0.15064405  0.87074172  0.46683347     0.01900
C5          C  0.15724409  0.88899102  0.50175526     0.01900
C6          C  0.14880445  0.86647239  0.53566430     0.01900
C7          C  0.14610017  0.08143879  0.45974999     0.01900
C8          C  0.15552240  0.05625510  0.49076958     0.01900
C9          C  0.14851015  0.07025773  0.52735989     0.01900
C10         C  0.12170579  0.09982410  0.53210432     0.01900
C11         C  0.10200807  0.11459367  0.50070308     0.01900
C12         C  0.12096082  0.11296555  0.46564206     0.01900
C13         C  0.92387180  0.10214890  0.46429643     0.01900
C14         C  0.93683709  0.11020886  0.50091502     0.01900
C15         C  0.91200987  0.10060772  0.53117037     0.01900
C16         C  0.88178210  0.07463187  0.52475182     0.01900
C17         C  0.88205045  0.05414525  0.49072893     0.01900
C18         C  0.89753225  0.07289093  0.45970064     0.01900
C19         C  0.89150872  0.86449771  0.53482804     0.01900
C20         C  0.91670731  0.83222921  0.53418181     0.01900
C21         C  0.93982451  0.82999662  0.50173398     0.01900
C22         C  0.92438101  0.84406270  0.46856335     0.01900
C23         C  0.89320698  0.86705510  0.46567076     0.01900
C24         C  0.88300872  0.88610618  0.50029468     0.01900
C25         C  0.48624691  0.10367775  0.10590802     0.01900
C26         C  0.51926025  0.11174793  0.08266077     0.01900
C27         C  0.55503551  0.10670488  0.10127772     0.01900
C28         C  0.55714360  0.08653176  0.13627686     0.01900
C29         C  0.52631153  0.06266325  0.14404314     0.01900
C30         C  0.49149898  0.08122325  0.13981594     0.01900
C31         C  0.55725208  0.07400801  0.86872374     0.01900
C32         C  0.56043702  0.10254521  0.89655646     0.01900
C33         C  0.52839151  0.11325366  0.91818133     0.01900
C34         C  0.49253437  0.10456755  0.90266298     0.01900
C35         C  0.48997638  0.07746839  0.87355948     0.01900
C36         C  0.52212492  0.05664738  0.86343032     0.01900
C37         C  0.55688951  0.85336455  0.10027926     0.01900
C38         C  0.55550979  0.88000524  0.13007782     0.01900
C39         C  0.52013620  0.89703291  0.13747158     0.01900
C40         C  0.48863528  0.87316541  0.13291903     0.01900
C41         C  0.48948361  0.84987897  0.10084703     0.01900
C42         C  0.52336525  0.84285800  0.08175895     0.01900
C43         C  0.48911832  0.87179349  0.87734765     0.01900
C44         C  0.52314193  0.89023850  0.86977338     0.01900
C45         C  0.55685317  0.86853730  0.87479377     0.01900
C46         C  0.55640302  0.83341060  0.89621068     0.01900
C47         C  0.52364131  0.82778555  0.91916087     0.01900
C48         C  0.48870673  0.84056964  0.90259871     0.01900
C49         C  0.12104634  0.43918930  0.86952970     0.01900
C50         C  0.10177967  0.47165966  0.85654459     0.01900
C51         C  0.12139117  0.50649148  0.86177067     0.01900
C52         C  0.14550475  0.50901295  0.89467297     0.01900
C53         C  0.15298157  0.47643530  0.91727732     0.01900
C54         C  0.14705125  0.44156464  0.89981825     0.01900
C55         C  0.15415700  0.51078249  0.10038575     0.01900
C56         C  0.16093452  0.47569090  0.08332125     0.01900
C57         C  0.15077605  0.44287756  0.10384126     0.01900
C58         C  0.12070057  0.44511423  0.13071186     0.01900
C59         C  0.10212991  0.48041092  0.13642215     0.01900
C60         C  0.12348061  0.51275504  0.12645692     0.01900
C61         C  0.91628423  0.51239720  0.12418114     0.01900
C62         C  0.93528193  0.47856130  0.13537316     0.01900
C63         C  0.91529724  0.44426117  0.13021263     0.01900
C64         C  0.88319729  0.44277997  0.10512058     0.01900
C65         C  0.87616008  0.47497365  0.08143193     0.01900
C66         C  0.88639072  0.51067747  0.09697295     0.01900
C67         C  0.92699393  0.50713912  0.86581697     0.01900
C68         C  0.93759354  0.47169070  0.85203553     0.01900
C69         C  0.91220543  0.44204569  0.85976007     0.01900
C70         C  0.89108682  0.44438945  0.89437149     0.01900
C71         C  0.88831227  0.47838551  0.91509944     0.01900
C72         C  0.90137188  0.51109492  0.89638747     0.01900
O73         O  0.23335966  0.90030564  0.69797619    -0.75700
O74         O  0.18142130  0.93612019  0.69329484    -0.54600
C75         C  0.20268617  0.91032612  0.68150726     0.78000
O76         O  0.21931899  0.93128195  0.89552141    -0.60300
O77         O  0.28098878  0.92994806  0.89330704    -0.53300
C78         C  0.25009485  0.91706649  0.90596559     0.70100
O79         O  0.13757340  0.90468264  0.80524675    -0.74800
O80         O  0.12177179  0.93611729  0.75247845    -0.55400
C81         C  0.11559397  0.91156003  0.77802184     0.76100
O82         O  0.32725799  0.90188733  0.78783466    -0.60000
O83         O  0.33973229  0.95433097  0.81751299    -0.53100
C84         C  0.34843257  0.92147546  0.80890137     0.72700
Zr85       Zr  0.26905245  0.92034651  0.75379093     2.54700
O86         O  0.26883173  0.85291422  0.75380793    -0.80600
O87         O  0.31678726  0.92495085  0.70634045    -0.94000
Zr88       Zr  0.19494242  0.92133101  0.83434167     2.64700
O89         O  0.20915604  0.85545687  0.84124972    -0.98900
O90         O  0.14468173  0.90994704  0.87768904    -0.81000
O91         O  0.20477959  0.92074668  0.76964515    -0.84300
O92         O  0.25897435  0.92019070  0.81914467    -2.19100
O93         O  0.32676367  0.05287585  0.78225877    -0.67700
O94         O  0.33373560  0.01816786  0.83508456    -0.52300
C95         C  0.34455039  0.04356932  0.81247462     0.71000
O96         O  0.12977230  0.03742153  0.80986287    -0.60600
O97         O  0.12657533  0.02392910  0.74892870    -0.52600
C98         C  0.11594618  0.04241748  0.77743242     0.72800
O99         O  0.21794009  0.02241695  0.89454600    -0.72000
O100        O  0.27972925  0.02072405  0.89483792    -0.50700
C101        C  0.24900836  0.03434997  0.90665560     0.74200
O102        O  0.23827094  0.03940929  0.68862437    -0.67400
O103        O  0.17896963  0.02044311  0.69555249    -0.54600
C104        C  0.20508648  0.03386859  0.67580185     0.72600
Zr105      Zr  0.26781250  0.03177030  0.75126603     2.77500
O106        O  0.25853719  0.09860227  0.74783847    -0.98100
O107        O  0.31827316  0.03327710  0.70655157    -0.78900
Zr108      Zr  0.19265890  0.03041907  0.83215230     2.70100
O109        O  0.20690750  0.09538855  0.82222783    -0.80200
O110        O  0.14813757  0.05392862  0.87633607    -0.99300
Zr111      Zr  0.17652551  0.97639751  0.74580093     2.21500
Zr112      Zr  0.28256191  0.97729825  0.84281058     2.11100
O113        O  0.25625430  0.03277633  0.81661059    -2.48000
O114        O  0.20346476  0.03203977  0.76754783    -0.80000
O115        O  0.29329940  0.97647598  0.77736684    -0.72200
O116        O  0.16559480  0.97526229  0.81036593    -2.33100
O117        O  0.24135221  0.97553304  0.72902978    -2.29300
O118        O  0.21881092  0.97658266  0.85845075    -0.73900
H119        H  0.27145743  0.89924028  0.83059333     0.78100
H120        H  0.13949350  0.97379293  0.81620544     0.79200
H121        H  0.26736212  0.05436450  0.82745865     0.81400
H122        H  0.24410674  0.97422671  0.70248334     0.79000
H123        H  0.13100390  0.93379006  0.87874733     0.42000
H124        H  0.14649530  0.03465257  0.89604440     0.41000
H125        H  0.19429025  0.10194984  0.79859925     0.40700
H126        H  0.27772472  0.10736575  0.73022886     0.38600
H127        H  0.33477736  0.01247561  0.71419161     0.41700
H128        H  0.30516408  0.93974128  0.68606833     0.36500
H129        H  0.24274568  0.84616996  0.74857738     0.42600
H130        H  0.21210219  0.84664123  0.81556073     0.39100
H131        H  0.23479406  0.10204717  0.73427069     0.44000
H132        H  0.31888491  0.89960224  0.69641533     0.42700
H133        H  0.23434254  0.85349531  0.85211896     0.42800
H134        H  0.16123862  0.07468903  0.88790824     0.43200
O135        O  0.09853154  0.19480853  0.69041200    -0.75700
O136        O  0.06372843  0.14248227  0.68647457    -0.54600
C137        C  0.08910348  0.16450623  0.67439401     0.78000
O138        O  0.06577611  0.17586526  0.89033394    -0.60300
O139        O  0.06382872  0.23738208  0.89112034    -0.53300
C140        C  0.07779615  0.20635371  0.90299400     0.70100
O141        O  0.09352787  0.09571890  0.80331729    -0.74800
O142        O  0.06729342  0.08112144  0.74810020    -0.55400
C143        C  0.08976518  0.07443619  0.77544523     0.76100
O144        O  0.09384529  0.28635080  0.77129192    -0.60000
O145        O  0.05932451  0.29409587  0.82402798    -0.53100
C146        C  0.08459450  0.30408824  0.80049663     0.72700
Zr147      Zr  0.07542865  0.22711884  0.74596772     2.54700
O148        O  0.14286767  0.23096341  0.74893233    -0.80600
O149        O  0.06647592  0.27222562  0.69584519    -0.94000
Zr150      Zr  0.07688226  0.15495889  0.82782784     2.64700
O151        O  0.14033434  0.17674461  0.82171475    -0.98900
O152        O  0.10340512  0.11495989  0.87551155    -0.81000
O153        O  0.07818847  0.16312708  0.76272572    -0.84300
O154        O  0.07546954  0.21839223  0.81199214    -2.19100
O155        O  0.94859823  0.28541884  0.77200537    -0.67700
O156        O  0.97708986  0.29412218  0.82818064    -0.52300
C157        C  0.95507095  0.30412833  0.80162396     0.71000
O158        O  0.94973076  0.09574462  0.79734574    -0.60600
O159        O  0.98078916  0.08065916  0.74489131    -0.52600
C160        C  0.95583300  0.07449727  0.76992213     0.72800
O161        O  0.95150361  0.17754175  0.88486340    -0.72000
O162        O  0.97677113  0.23441712  0.89377370    -0.50700
C163        C  0.95607333  0.20667695  0.90415095     0.74200
O164        O  0.94723267  0.18975494  0.69019638    -0.67400
O165        O  0.98313767  0.13748702  0.68592815    -0.54600
C166        C  0.95722194  0.15942626  0.67411461     0.72600
Zr167      Zr  0.96650059  0.22528636  0.74530598     2.77500
O168        O  0.89890271  0.22505396  0.74408925    -0.98100
O169        O  0.97263580  0.27042123  0.69494091    -0.78900
Zr170      Zr  0.96813183  0.15177187  0.82616887     2.70100
O171        O  0.90183444  0.16002107  0.81672066    -0.80200
O172        O  0.96660014  0.10353249  0.87401861    -0.99300
Zr173      Zr  0.02364815  0.13403510  0.73939539     2.21500
Zr174      Zr  0.01883471  0.24205742  0.83831142     2.11100
O175        O  0.96489434  0.21537423  0.81090874    -2.48000
O176        O  0.96782526  0.16133166  0.76162113    -0.80000
O177        O  0.02001008  0.25204617  0.77200372    -0.72200
O178        O  0.02373789  0.12458274  0.80470106    -2.33100
O179        O  0.02179305  0.19848622  0.72158319    -2.29300
O180        O  0.02107818  0.17805938  0.85269460    -0.73900
H181        H  0.09654566  0.23061852  0.82281116     0.78100
H182        H  0.02404425  0.09854945  0.81121791     0.79200
H183        H  0.94257009  0.22604343  0.82120069     0.81400
H184        H  0.02180653  0.20122245  0.69492270     0.79000
H185        H  0.08202844  0.10088897  0.88545730     0.42000
H186        H  0.97863621  0.08166474  0.86280814     0.41000
H187        H  0.89875138  0.16300599  0.78957943     0.40700
H188        H  0.89132306  0.23491641  0.76841831     0.38600
H189        H  0.98831837  0.25806635  0.67625978     0.41700
H190        H  0.05907541  0.25751806  0.67412674     0.36500
H191        H  0.15152388  0.20490721  0.75037076     0.42600
H192        H  0.14686222  0.18617054  0.84649236     0.39100
H193        H  0.89210365  0.24485583  0.72601062     0.44000
H194        H  0.09183811  0.28086223  0.68987885     0.42700
H195        H  0.15526700  0.15392625  0.81870288     0.42800
H196        H  0.98464313  0.11164005  0.89295728     0.43200
O197        O  0.09250595  0.76353309  0.29938618    -0.75700
O198        O  0.05200032  0.81096077  0.30585195    -0.54600
C199        C  0.07931483  0.79133221  0.31743643     0.78000
O200        O  0.06982640  0.78625412  0.10250643    -0.60300
O201        O  0.06431130  0.72520860  0.10019200    -0.53300
C202        C  0.08044099  0.75515544  0.08988100     0.70100
O203        O  0.09995875  0.85570452  0.20161601    -0.74800
O204        O  0.06786420  0.87533209  0.25112990    -0.55400
C205        C  0.09557422  0.87749000  0.22893000     0.76100
O206        O  0.08836000  0.67248248  0.21117143    -0.60000
O207        O  0.05493851  0.66807260  0.15758216    -0.53100
C208        C  0.07941251  0.65613296  0.18069403     0.72700
Zr209      Zr  0.06947058  0.72925670  0.24476702     2.54700
O210        O  0.13562185  0.71788237  0.25372014    -0.80600
O211        O  0.05537075  0.68401589  0.29328334    -0.94000
Zr212      Zr  0.08160766  0.80408675  0.16554400     2.64700
O213        O  0.14386362  0.77726512  0.16851822    -0.98900
O214        O  0.11479951  0.84660128  0.12534678    -0.81000
O215        O  0.07672845  0.79314227  0.22987915    -0.84300
O216        O  0.07591959  0.74086558  0.18000697    -2.19100
O217        O  0.94138577  0.68017982  0.20700820    -0.67700
O218        O  0.98086124  0.67042929  0.15869021    -0.52300
C219        C  0.95373281  0.66067602  0.17937411     0.71000
O220        O  0.97002843  0.87889380  0.18266229    -0.60600
O221        O  0.97530372  0.87496038  0.24453767    -0.52600
C222        C  0.95933342  0.88756593  0.21510392     0.72800
O223        O  0.97594007  0.79009059  0.09636023    -0.72000
O224        O  0.97547671  0.72827407  0.09969245    -0.50700
C225        C  0.96243225  0.75896442  0.08696371     0.74200
O226        O  0.93993933  0.78036104  0.29180415    -0.67400
O227        O  0.97816529  0.82992078  0.29702575    -0.54600
C228        C  0.95069006  0.81063955  0.30799634     0.72600
Zr229      Zr  0.95862372  0.74065877  0.23725491     2.77500
O230        O  0.89181630  0.74796260  0.22880365    -0.98100
O231        O  0.95166473  0.69666400  0.28844696    -0.78900
Zr232      Zr  0.97249942  0.81728631  0.15735585     2.70100
O233        O  0.90573709  0.81324025  0.16463938    -0.80200
O234        O  0.95588525  0.85999616  0.10680217    -0.99300
Zr235      Zr  0.02193544  0.82535067  0.24845829     2.21500
Zr236      Zr  0.01908138  0.72334000  0.15107937     2.11100
O237        O  0.96376459  0.75354964  0.17239140    -2.48000
O238        O  0.96590545  0.80433173  0.22127150    -0.80000
O239        O  0.01335453  0.70995108  0.21607838    -0.72200
O240        O  0.02897407  0.83890168  0.18407866    -2.33100
O241        O  0.01484457  0.76094000  0.26507695    -2.29300
O242        O  0.02616110  0.78684894  0.13586615    -0.73900
H243        H  0.09671437  0.72758415  0.16966443     0.78100
H244        H  0.03353207  0.86480719  0.17899625     0.79200
H245        H  0.94200288  0.74427217  0.15997975     0.81400
H246        H  0.01238762  0.75762278  0.29156359     0.79000
H247        H  0.09535240  0.86401598  0.11624810     0.42000
H248        H  0.95303125  0.88483667  0.11765190     0.41000
H249        H  0.90064511  0.82564527  0.18840410     0.40700
H250        H  0.88703035  0.74043930  0.20295464     0.38600
H251        H  0.97579934  0.69709280  0.30161467     0.41700
H252        H  0.04672750  0.69897113  0.31441872     0.36500
H253        H  0.14737790  0.72832169  0.23114304     0.42600
H254        H  0.15053407  0.77217129  0.14249495     0.39100
H255        H  0.88090406  0.72794026  0.24422036     0.44000
H256        H  0.07997807  0.67439562  0.30127835     0.42700
H257        H  0.15999887  0.79797126  0.17590869     0.42800
H258        H  0.97865769  0.86202929  0.09158992     0.43200
O259        O  0.21875069  0.87411871  0.05527134    -0.75700
O260        O  0.27952350  0.86742024  0.04358719    -0.54600
C261        C  0.25267561  0.88214075  0.06188391     0.78000
O262        O  0.24467194  0.67486863  0.07823867    -0.60300
O263        O  0.18824748  0.66737492  0.05014554    -0.53300
C264        C  0.21494916  0.65617295  0.07162491     0.70100
O265        O  0.32909217  0.76983811  0.06786097    -0.74800
O266        O  0.33639014  0.81333720  0.02211371    -0.55400
C267        C  0.34767671  0.79559205  0.05073841     0.76100
O268        O  0.13310340  0.78544039  0.06927306    -0.60000
O269        O  0.12392213  0.72735230  0.04737679    -0.53100
C270        C  0.11420692  0.75554741  0.06672881     0.72700
Zr271      Zr  0.19093525  0.81348137  0.05009991     2.54700
O272        O  0.19771669  0.82086488  0.11644856    -0.80600
O273        O  0.14033631  0.85874328  0.04875758    -0.94000
Zr274      Zr  0.26965364  0.73569650  0.05826021     2.64700
O275        O  0.26430783  0.74415234  0.12485127    -0.98900
O276        O  0.32013446  0.69149162  0.06796056    -0.81000
O277        O  0.25535966  0.79986715  0.05254150    -0.84300
O278        O  0.20465576  0.74931731  0.05892343    -2.19100
O279        O  0.12816652  0.78352183  0.95887702    -0.67700
O280        O  0.12466249  0.72245179  0.96351200    -0.52300
C281        C  0.11435510  0.75307883  0.94804702     0.71000
O282        O  0.32537212  0.75116403  0.92401555    -0.60600
O283        O  0.32942750  0.80607369  0.95368246    -0.52600
C284        C  0.34192002  0.78187386  0.93095293     0.72800
O285        O  0.23405493  0.66685373  0.93384906    -0.72000
O286        O  0.18341846  0.66278531  0.97158023    -0.50700
C287        C  0.20469833  0.65031753  0.94588586     0.74200
O288        O  0.21825038  0.86321032  0.92368500    -0.67400
O289        O  0.27367436  0.87388943  0.95203269    -0.54600
C290        C  0.24767593  0.88277085  0.92897146     0.72600
Zr291      Zr  0.18973444  0.80373291  0.94129548     2.77500
O292        O  0.18921376  0.78340255  0.87720350    -0.98100
O293        O  0.14310306  0.84409039  0.91344434    -0.78900
Zr294      Zr  0.26659151  0.72490634  0.94767994     2.70100
O295        O  0.26320359  0.71888162  0.88057124    -0.80200
O296        O  0.31411343  0.67729823  0.95622878    -0.99300
Zr297      Zr  0.27791814  0.82013100  0.99377073     2.21500
Zr298      Zr  0.17777460  0.71909366  0.00677106     2.11100
O299        O  0.20196532  0.73898572  0.94753385    -2.48000
O300        O  0.25388021  0.78980842  0.94058168    -0.80000
O301        O  0.16485665  0.78362433  0.99898889    -0.72200
O302        O  0.29218683  0.75526391  0.99960917    -2.33100
O303        O  0.21389027  0.83563191  0.99248981    -2.29300
O304        O  0.24291155  0.70525692  0.00638707    -0.73900
H305        H  0.19388056  0.74026405  0.08179190     0.78100
H306        H  0.31858257  0.75046046  0.99907153     0.79200
H307        H  0.18982219  0.72586560  0.92783498     0.81400
H308        H  0.20925998  0.86191967  0.99021046     0.79000
H309        H  0.32500704  0.68141062  0.04304975     0.42000
H310        H  0.30294047  0.65909284  0.97359983     0.41000
H311        H  0.27710590  0.74026092  0.87038410     0.40700
H312        H  0.21431637  0.77307711  0.87292821     0.38600
H313        H  0.13185274  0.85711372  0.93467154     0.41700
H314        H  0.12122679  0.84789732  0.03246561     0.36500
H315        H  0.21765182  0.80318700  0.12363927     0.42600
H316        H  0.27930896  0.72369468  0.13585766     0.39100
H317        H  0.17238594  0.76186703  0.87649920     0.44000
H318        H  0.14986727  0.88009388  0.03424112     0.42700
H319        H  0.27885772  0.76671334  0.12985783     0.42800
H320        H  0.31505670  0.66447610  0.93217177     0.43200
O321        O  0.09375849  0.08430743  0.19592970    -0.75700
O322        O  0.06720167  0.07181669  0.25147597    -0.54600
C323        C  0.08997149  0.06412204  0.22488662     0.78000
O324        O  0.08444595  0.28319599  0.21606342    -0.60300
O325        O  0.07680439  0.27512020  0.15488214    -0.53300
C326        C  0.08469971  0.29552833  0.18218705     0.70100
O327        O  0.09303382  0.19197492  0.30380034    -0.74800
O328        O  0.05863147  0.13937266  0.31255244    -0.55400
C329        C  0.08181039  0.16438652  0.32369448     0.76100
O330        O  0.09712260  0.16914029  0.10834910    -0.60000
O331        O  0.06723496  0.22400014  0.09649538    -0.53100
C332        C  0.09024755  0.19786009  0.08807428     0.72700
Zr333      Zr  0.08007222  0.14188688  0.16721749     2.54700
O334        O  0.14644914  0.14392500  0.17914639    -0.80600
O335        O  0.08175831  0.09342782  0.12096274    -0.94000
Zr336      Zr  0.07913269  0.21938390  0.24296295     2.64700
O337        O  0.14625377  0.21850862  0.23486136    -0.98900
O338        O  0.08638242  0.26328108  0.29297835    -0.81000
O339        O  0.07967285  0.15415261  0.23137644    -0.84300
O340        O  0.08260953  0.20559209  0.17913088    -2.19100
O341        O  0.97941574  0.16847320  0.10044325    -0.67700
O342        O  0.98164069  0.23000104  0.10113601    -0.52300
C343        C  0.96696828  0.19997469  0.08967777     0.71000
O344        O  0.95697820  0.18742997  0.30241654    -0.60600
O345        O  0.97009122  0.12729240  0.29325315    -0.52600
C346        C  0.95887882  0.15326144  0.31393327     0.72800
O347        O  0.95390286  0.27953370  0.21020466    -0.72000
O348        O  0.99237646  0.28665719  0.16059561    -0.50700
C349        C  0.96634972  0.29813756  0.18182908     0.74200
O350        O  0.95205648  0.08968755  0.19370511    -0.67400
O351        O  0.97990667  0.07313271  0.24798511    -0.54600
C352        C  0.95551452  0.06829783  0.22194471     0.72600
Zr353      Zr  0.97233746  0.14402975  0.16266697     2.77500
O354        O  0.90585433  0.15511285  0.15738348    -0.98100
O355        O  0.96601385  0.09293210  0.11997586    -0.78900
Zr356      Zr  0.96937680  0.21909784  0.24144727     2.70100
O357        O  0.90205262  0.21501167  0.23736254    -0.80200
O358        O  0.96817331  0.26369456  0.29132540    -0.99300
Zr359      Zr  0.02406992  0.12613188  0.25443263     2.21500
Zr360      Zr  0.02774928  0.23091362  0.15138058     2.11100
O361        O  0.97083440  0.20765336  0.17653059    -2.48000
O362        O  0.97032208  0.15504164  0.22709717    -0.80000
O363        O  0.02763824  0.16727511  0.13787455    -0.72200
O364        O  0.02403743  0.19193740  0.26706891    -2.33100
O365        O  0.02504782  0.11514860  0.18967271    -2.29300
O366        O  0.02460433  0.24511181  0.21616612    -0.73900
H367        H  0.10515834  0.21539972  0.16850030     0.78100
H368        H  0.02326278  0.19654183  0.29331049     0.79200
H369        H  0.94985197  0.21982162  0.16480590     0.81400
H370        H  0.02457650  0.08894927  0.18468090     0.79000
H371        H  0.06106897  0.27337343  0.29685030     0.42000
H372        H  0.98277220  0.28493522  0.28189414     0.41000
H373        H  0.89286803  0.23785442  0.24924025     0.40700
H374        H  0.89706286  0.15578148  0.18335092     0.38600
H375        H  0.99146990  0.08870160  0.11052802     0.41700
H376        H  0.06672775  0.10339458  0.10002574     0.36500
H377        H  0.14997315  0.13180636  0.20370677     0.42600
H378        H  0.15496582  0.24063022  0.24816629     0.39100
H379        H  0.90307187  0.18092429  0.14821600     0.44000
H380        H  0.06648439  0.07303311  0.13118826     0.42700
H381        H  0.15499331  0.19728256  0.25028617     0.42800
H382        H  0.94218472  0.27278901  0.29194638     0.43200
O383        O  0.15111084  0.89685086  0.20718721    -0.75700
O384        O  0.12977174  0.93035090  0.25520989    -0.54600
C385        C  0.12682905  0.90377881  0.23182288     0.78000
O386        O  0.34064471  0.91230871  0.23023068    -0.60300
O387        O  0.34381248  0.93434281  0.17028355    -0.53300
C388        C  0.35670007  0.91568611  0.19856519     0.70100
O389        O  0.25211489  0.91279587  0.31539165    -0.74800
O390        O  0.19349937  0.93748568  0.31458990    -0.55400
C391        C  0.22030169  0.91928997  0.33045601     0.76100
O392        O  0.23247749  0.89612399  0.11969655    -0.60000
O393        O  0.28263775  0.92991931  0.10181458    -0.53100
C394        C  0.25767881  0.90448864  0.09630984     0.72700
Zr395      Zr  0.20642791  0.91438556  0.17704015     2.54700
O396        O  0.21675801  0.84836673  0.18753183    -0.80600
O397        O  0.15879102  0.90772021  0.12961663    -0.94000
Zr398      Zr  0.27977059  0.92848777  0.25474572     2.64700
O399        O  0.28208226  0.86113196  0.25709770    -0.98900
O400        O  0.32653545  0.94197574  0.30149313    -0.81000
O401        O  0.21585080  0.91975364  0.24137892    -0.84300
O402        O  0.26994822  0.92048211  0.18988934    -2.19100
O403        O  0.21855179  0.01660513  0.10109868    -0.67700
O404        O  0.28062973  0.01883105  0.10296359    -0.52300
C405        C  0.24905480  0.03075114  0.09013567     0.71000
O406        O  0.23674682  0.05801329  0.29766240    -0.60600
O407        O  0.18702728  0.01988476  0.30648903    -0.52600
C408        C  0.20782460  0.04711048  0.31576514     0.72800
O409        O  0.32783118  0.05417019  0.21409917    -0.72000
O410        O  0.34165084  0.01624775  0.16537983    -0.50700
C411        C  0.34932638  0.04242424  0.18826984     0.74200
O412        O  0.13844895  0.03541633  0.19566555    -0.67400
O413        O  0.12694102  0.01385350  0.25371332    -0.54600
C414        C  0.11879258  0.03433184  0.22533132     0.72600
Zr415      Zr  0.19507218  0.02104296  0.16356619     2.77500
O416        O  0.20130935  0.08770759  0.15710386    -0.98100
O417        O  0.14395207  0.02794083  0.11962611    -0.78900
Zr418      Zr  0.26856057  0.03619276  0.24152739     2.70100
O419        O  0.25965328  0.10201187  0.22833673    -0.80200
O420        O  0.31450035  0.04036663  0.29089861    -0.99300
Zr421      Zr  0.18256151  0.97417420  0.25856902     2.21500
Zr422      Zr  0.28984139  0.97396849  0.15557733     2.11100
O423        O  0.25889700  0.02916365  0.17674049    -2.48000
O424        O  0.20459738  0.02894898  0.22772223    -0.80000
O425        O  0.22556674  0.96694629  0.14363388    -0.72200
O426        O  0.24711239  0.98234973  0.27307493    -2.33100
O427        O  0.17248116  0.96753085  0.19373527    -2.29300
O428        O  0.29936849  0.98187180  0.22113406    -0.73900
H429        H  0.28277445  0.89858382  0.18154784     0.78100
H430        H  0.25069651  0.98537748  0.29938790     0.79200
H431        H  0.26851830  0.05073921  0.16404414     0.81400
H432        H  0.14641085  0.96485551  0.18810065     0.79000
H433        H  0.31343172  0.95704355  0.32015739     0.42000
H434        H  0.33580115  0.02518230  0.28250637     0.41000
H435        H  0.23268662  0.10633863  0.23168462     0.40700
H436        H  0.22413485  0.09196934  0.14251677     0.38600
H437        H  0.14503991  0.00541648  0.10432290     0.41700
H438        H  0.16621563  0.92475718  0.10924617     0.36500
H439        H  0.24385453  0.84456534  0.18474628     0.42600
H440        H  0.30111369  0.85513639  0.27614766     0.39100
H441        H  0.18086390  0.09425085  0.13985031     0.44000
H442        H  0.13618190  0.91942812  0.13989007     0.42700
H443        H  0.25826656  0.85367435  0.26854871     0.42800
H444        H  0.32343736  0.06621636  0.28954871     0.43200
O445        O  0.32246031  0.19111389  0.07357522    -0.75700
O446        O  0.32736699  0.13861932  0.03970148    -0.54600
C447        C  0.33964569  0.16140789  0.06390965     0.78000
O448        O  0.12442571  0.16878569  0.04117259    -0.60300
O449        O  0.12179570  0.23028778  0.03882039    -0.53300
C450        C  0.11215650  0.19948054  0.05378632     0.70100
O451        O  0.21537184  0.08345429  0.07070420    -0.74800
O452        O  0.27120991  0.07391449  0.04275609    -0.55400
C453        C  0.24543190  0.06447648  0.06577435     0.76100
O454        O  0.23435678  0.27867161  0.07132901    -0.60000
O455        O  0.18361201  0.28575321  0.03388680    -0.53100
C456        C  0.20599568  0.29725453  0.05933189     0.72700
Zr457      Zr  0.26368908  0.21993658  0.05315070     2.54700
O458        O  0.26315173  0.22090706  0.12062600    -0.80600
O459        O  0.31016118  0.26819812  0.04634083    -0.94000
Zr460      Zr  0.18589908  0.14289683  0.05399323     2.64700
O461        O  0.18561677  0.16120389  0.11853878    -0.98900
O462        O  0.14170474  0.09730130  0.07584236    -0.81000
O463        O  0.25033890  0.15502960  0.05494568    -0.84300
O464        O  0.19901485  0.20720995  0.05248119    -2.19100
O465        O  0.23924167  0.28261115  0.93642493    -0.67700
O466        O  0.17829659  0.27279147  0.94383318    -0.52300
C467        C  0.20504344  0.29411919  0.93618743     0.71000
O468        O  0.21682088  0.08557692  0.92658943    -0.60600
O469        O  0.27210151  0.07517350  0.95560715    -0.52600
C470        C  0.24663852  0.06671344  0.93175968     0.72800
O471        O  0.13007660  0.17334762  0.92357167    -0.72000
O472        O  0.11928960  0.22810780  0.95236182    -0.50700
C473        C  0.11081507  0.20308204  0.92839850     0.74200
O474        O  0.32927438  0.18868682  0.93707140    -0.67400
O475        O  0.32445059  0.12913431  0.95683529    -0.54600
C476        C  0.34303789  0.15569419  0.94270796     0.72600
Zr477      Zr  0.26632183  0.21863518  0.94344812     2.77500
O478        O  0.26024170  0.21208512  0.87666230    -0.98100
O479        O  0.31425180  0.26368076  0.92878237    -0.78900
Zr480      Zr  0.18629309  0.14169983  0.94511457     2.70100
O481        O  0.19089993  0.14101778  0.87836680    -0.80200
O482        O  0.13696411  0.09602039  0.95025045    -0.99300
Zr483      Zr  0.27431095  0.12756749  0.99990024     2.21500
Zr484      Zr  0.17347830  0.23112968  0.99533874     2.11100
O485        O  0.20153652  0.20495544  0.94152124    -2.48000
O486        O  0.25077076  0.15448895  0.94407942    -0.80000
O487        O  0.23870911  0.24526851  0.99700911    -0.72200
O488        O  0.20996239  0.11443514  0.00035391    -2.33100
O489        O  0.28972768  0.19252206  0.99963765    -2.29300
O490        O  0.15946567  0.16693831  0.99833750    -0.73900
H491        H  0.18736611  0.21961208  0.07295904     0.78100
H492        H  0.20547528  0.08809752  0.00064653     0.79200
H493        H  0.19126450  0.21441567  0.91848407     0.81400
H494        H  0.31616499  0.19642007  0.00094387     0.79000
H495        H  0.12972218  0.08820132  0.05301172     0.42000
H496        H  0.14748848  0.07575726  0.96586312     0.41000
H497        H  0.21670058  0.14881242  0.87319736     0.40700
H498        H  0.25019066  0.23626254  0.86790415     0.38600
H499        H  0.32996979  0.26432170  0.95132332     0.41700
H500        H  0.33217986  0.25569773  0.03574346     0.36500
H501        H  0.28702374  0.23242831  0.12752161     0.42600
H502        H  0.21056144  0.17150684  0.12307975     0.39100
H503        H  0.28614039  0.21161725  0.86750700     0.44000
H504        H  0.31751327  0.27402095  0.07206452     0.42700
H505        H  0.16844089  0.18261402  0.12011088     0.42800
H506        H  0.11792757  0.10774501  0.96609076     0.43200
O507        O  0.90385220  0.04322320  0.19384150    -0.75700
O508        O  0.92166672  0.01459417  0.24724698    -0.54600
C509        C  0.92610891  0.03935745  0.22166074     0.78000
O510        O  0.71770735  0.05711184  0.21968393    -0.60300
O511        O  0.70273931  0.02443101  0.16773436    -0.53300
C512        C  0.69592721  0.04913203  0.19256752     0.70100
O513        O  0.81189950  0.04753501  0.30160530    -0.74800
O514        O  0.87024345  0.03005699  0.28828726    -0.55400
C515        C  0.84636420  0.04339327  0.31040564     0.76100
O516        O  0.82085947  0.01869990  0.09937501    -0.60000
O517        O  0.75925210  0.02430628  0.10310572    -0.53100
C518        C  0.79065560  0.03452137  0.08921101     0.72700
Zr519      Zr  0.84876880  0.02484147  0.16012750     2.54700
O520        O  0.84065586  0.09105672  0.15113694    -0.80600
O521        O  0.89946491  0.02538842  0.11548925    -0.94000
Zr522      Zr  0.77841762  0.03656410  0.24337443     2.64700
O523        O  0.78999182  0.10268611  0.23704118    -0.98900
O524        O  0.73310817  0.04297589  0.29284471    -0.81000
O525        O  0.84110164  0.02990145  0.22457144    -0.84300
O526        O  0.78571572  0.03334083  0.17771454    -2.19100
O527        O  0.81504845  0.92960221  0.10647211    -0.67700
O528        O  0.75336584  0.93369618  0.10446668    -0.52300
C529        C  0.78396783  0.91880771  0.09301211     0.71000
O530        O  0.80374400  0.90982588  0.30837539    -0.60600
O531        O  0.86088815  0.93703876  0.30864917    -0.52600
C532        C  0.83583350  0.91587686  0.32304506     0.72800
O533        O  0.71081404  0.90973793  0.22791394    -0.72000
O534        O  0.70071458  0.94100176  0.17289258    -0.50700
C535        C  0.69169366  0.91765959  0.19880212     0.74200
O536        O  0.90187227  0.90297523  0.19030701    -0.67400
O537        O  0.91856325  0.93188113  0.24356426    -0.54600
C538        C  0.92472816  0.90929419  0.21691635     0.72600
Zr539      Zr  0.83912927  0.91708126  0.16892709     2.77500
O540        O  0.81228802  0.85657999  0.18233688    -0.98100
O541        O  0.87452979  0.87890784  0.12706808    -0.78900
Zr542      Zr  0.77045610  0.92894193  0.25165653     2.70100
O543        O  0.76460169  0.86206412  0.25817526    -0.80200
O544        O  0.72617761  0.94490935  0.29991845    -0.99300
Zr545      Zr  0.86651482  0.97487032  0.25187191     2.21500
Zr546      Zr  0.75320480  0.97976958  0.15611808     2.11100
O547        O  0.77634687  0.92412354  0.18600568    -2.48000
O548        O  0.83353072  0.92086122  0.23395837    -0.80000
O549        O  0.81701771  0.97197946  0.14013200    -0.72200
O550        O  0.80307744  0.98148402  0.27155912    -2.33100
O551        O  0.87368983  0.96990594  0.18646042    -2.29300
O552        O  0.74663142  0.98359397  0.22236520    -0.73900
H553        H  0.77576548  0.05565664  0.16629989     0.78100
H554        H  0.80122420  0.98226212  0.29822827     0.79200
H555        H  0.76246012  0.90326678  0.17719255     0.81400
H556        H  0.89944578  0.96868208  0.17915645     0.79000
H557        H  0.73604851  0.02012270  0.30806255     0.42000
H558        H  0.70645861  0.95928328  0.28689504     0.41000
H559        H  0.79048037  0.85268340  0.25943954     0.40700
H560        H  0.79903404  0.84994484  0.15934020     0.38600
H561        H  0.88752652  0.89747509  0.11151214     0.41700
H562        H  0.89509489  0.00346209  0.09993942     0.36500
H563        H  0.84255882  0.10129702  0.17636844     0.42600
H564        H  0.77581637  0.11389647  0.25757128     0.39100
H565        H  0.83362588  0.83924924  0.18399829     0.44000
H566        H  0.92212908  0.01893673  0.12982258     0.42700
H567        H  0.81634675  0.10554789  0.24429963     0.42800
H568        H  0.71424606  0.92115822  0.30673143     0.43200
O569        O  0.82337120  0.08776383  0.07439265    -0.75700
O570        O  0.77295016  0.07667942  0.03832536    -0.54600
C571        C  0.79515806  0.06831492  0.06545346     0.78000
O572        O  0.80183215  0.28212811  0.06423798    -0.60300
O573        O  0.86083490  0.28721016  0.04114178    -0.53300
C574        C  0.83280505  0.29966508  0.05931915     0.70100
O575        O  0.71521003  0.18705380  0.06038174    -0.74800
O576        O  0.71317635  0.13694556  0.02263436    -0.55400
C577        C  0.69905355  0.15810136  0.04700327     0.76100
O578        O  0.91277385  0.17062213  0.07298390    -0.60000
O579        O  0.92336477  0.22676567  0.04552896    -0.53100
C580        C  0.93250423  0.19963797  0.06746828     0.72700
Zr581      Zr  0.85295680  0.14543241  0.05738722     2.54700
O582        O  0.83687704  0.16149537  0.12063424    -0.80600
O583        O  0.89990024  0.10017855  0.07557190    -0.94000
Zr584      Zr  0.77419377  0.22113679  0.04912294     2.64700
O585        O  0.76885975  0.22189123  0.11638379    -0.98900
O586        O  0.72529063  0.26748393  0.04110375    -0.81000
O587        O  0.78862791  0.15654317  0.05170306    -0.84300
O588        O  0.83915505  0.20939925  0.05644941    -2.19100
O589        O  0.92575528  0.17241485  0.95088384    -0.67700
O590        O  0.92030377  0.23353154  0.95545704    -0.52300
C591        C  0.93412219  0.20496115  0.93952165     0.71000
O592        O  0.72514203  0.18943476  0.91912726    -0.60600
O593        O  0.72028590  0.13569348  0.95267231    -0.52600
C594        C  0.70818425  0.15898991  0.92826271     0.72800
O595        O  0.81436820  0.28159864  0.92738778    -0.72000
O596        O  0.85997832  0.28968593  0.97051800    -0.50700
C597        C  0.84049144  0.30058246  0.94283017     0.74200
O598        O  0.83820192  0.08815737  0.92767363    -0.67400
O599        O  0.77937009  0.08008094  0.94919509    -0.54600
C600        C  0.80710812  0.07105668  0.92861397     0.72600
Zr601      Zr  0.86425953  0.14574863  0.94805544     2.77500
O602        O  0.86555241  0.15812141  0.88190116    -0.98100
O603        O  0.91333704  0.10019108  0.93892108    -0.78900
Zr604      Zr  0.78331121  0.22128863  0.93958291     2.70100
O605        O  0.78855048  0.22208601  0.87230796    -0.80200
O606        O  0.73321552  0.26683929  0.94027895    -0.99300
Zr607      Zr  0.77211784  0.12997141  0.99402923     2.21500
Zr608      Zr  0.87014057  0.23329081  0.00291916     2.11100
O609        O  0.84846915  0.20957760  0.94503652    -2.48000
O610        O  0.79979557  0.15715818  0.94050373    -0.80000
O611        O  0.88465752  0.16933634  0.00522360    -0.72200
O612        O  0.75538217  0.19448106  0.99251113    -2.33100
O613        O  0.83646137  0.11745612  0.00065670    -2.29300
O614        O  0.80484035  0.24581121  0.99645531    -0.73900
H615        H  0.84848962  0.22091797  0.07858282     0.78100
H616        H  0.72890302  0.19804397  0.99003254     0.79200
H617        H  0.86051041  0.22184157  0.92445539     0.81400
H618        H  0.84161320  0.09116624  0.00148554     0.79000
H619        H  0.71308626  0.26118030  0.01742767     0.42000
H620        H  0.74218399  0.28651365  0.95682762     0.41000
H621        H  0.81356859  0.23216458  0.86728114     0.40700
H622        H  0.83926701  0.16289775  0.87520965     0.38600
H623        H  0.91363624  0.08523395  0.96213173     0.41700
H624        H  0.89373447  0.07751161  0.06179085     0.36500
H625        H  0.81006413  0.15601824  0.12285712     0.42600
H626        H  0.79224262  0.23320522  0.12503991     0.39100
H627        H  0.87761086  0.18250154  0.87905141     0.44000
H628        H  0.89408204  0.09439273  0.10177262     0.42700
H629        H  0.74953773  0.24085636  0.12119729     0.42800
H630        H  0.73339444  0.27817791  0.91513909     0.43200
O631        O  0.07413423  0.87665982  0.81197611    -0.75700
O632        O  0.06650001  0.87550482  0.74970867    -0.54600
C633        C  0.08249051  0.88763778  0.77915338     0.78000
O634        O  0.10138074  0.67474980  0.78911205    -0.60300
O635        O  0.06683617  0.66480635  0.84143118    -0.53300
C636        C  0.09014265  0.65421597  0.81653952     0.70100
O637        O  0.11305524  0.77233116  0.70901101    -0.74800
O638        O  0.07998577  0.82597067  0.70861745    -0.55400
C639        C  0.10496469  0.80460959  0.69527742     0.76100
O640        O  0.09183066  0.78576542  0.89669135    -0.60000
O641        O  0.06985457  0.72716271  0.90503886    -0.53100
C642        C  0.08978382  0.75500785  0.91495907     0.72700
Zr643      Zr  0.07122647  0.81506594  0.83916845     2.54700
O644        O  0.13752588  0.82552434  0.83498125    -0.80600
O645        O  0.06267306  0.85781116  0.89016038    -0.94000
Zr646      Zr  0.08919661  0.73794429  0.76382877     2.64700
O647        O  0.15448331  0.74294854  0.78071555    -0.98900
O648        O  0.10124902  0.69581701  0.71308156    -0.81000
O649        O  0.07867161  0.80171463  0.77581237    -0.84300
O650        O  0.08257568  0.75128325  0.82798099    -2.19100
O651        O  0.97561755  0.78348258  0.89424990    -0.67700
O652        O  0.98193578  0.72259714  0.90143230    -0.52300
C653        C  0.96531366  0.75309652  0.90953869     0.71000
O654        O  0.95909590  0.75185774  0.69566871    -0.60600
O655        O  0.98576834  0.80880356  0.68868344    -0.52600
C656        C  0.96486751  0.78206423  0.67722782     0.72800
O657        O  0.96742820  0.66543332  0.78518240    -0.72000
O658        O  0.98368753  0.67193830  0.84537398    -0.50700
C659        C  0.96937018  0.65363426  0.81903148     0.74200
O660        O  0.94728301  0.85675160  0.79674255    -0.67400
O661        O  0.97875802  0.87533939  0.74560929    -0.54600
C662        C  0.95259764  0.87953647  0.76966048     0.72600
Zr663      Zr  0.96394033  0.80071052  0.82983961     2.77500
O664        O  0.90314421  0.77294804  0.82134787    -0.98100
O665        O  0.92664156  0.83965177  0.86944337    -0.78900
Zr666      Zr  0.98096839  0.72498608  0.75449013     2.70100
O667        O  0.91470088  0.71351936  0.74882244    -0.80200
O668        O  0.00028085  0.67967723  0.70896408    -0.99300
Zr669      Zr  0.02346410  0.82273757  0.74502316     2.21500
Zr670      Zr  0.02859191  0.72014031  0.85089900     2.11100
O671        O  0.97265985  0.73770035  0.81846584    -2.48000
O672        O  0.97058269  0.78891773  0.76599785    -0.80000
O673        O  0.01890216  0.78403366  0.86202099    -0.72200
O674        O  0.03379280  0.75807820  0.73226329    -2.33100
O675        O  0.01557356  0.83507900  0.80946661    -2.29300
O676        O  0.03590409  0.70664150  0.78635265    -0.73900
H677        H  0.10465513  0.74269497  0.84080325     0.78100
H678        H  0.03663850  0.75451099  0.70592686     0.79200
H679        H  0.95099483  0.72517417  0.82785761     0.81400
H680        H  0.01125735  0.86097191  0.81427084     0.79000
H681        H  0.07829390  0.69660574  0.69792928     0.42000
H682        H  0.01737875  0.66277720  0.72264130     0.41000
H683        H  0.90277709  0.73764494  0.75410788     0.40700
H684        H  0.89588583  0.76393601  0.84630904     0.38600
H685        H  0.94532712  0.85370362  0.88358259     0.41700
H686        H  0.04709922  0.84417397  0.90827779     0.36500
H687        H  0.14256475  0.82732413  0.80806062     0.42600
H688        H  0.16770559  0.72795876  0.76206768     0.39100
H689        H  0.88631019  0.79403216  0.81561046     0.44000
H690        H  0.04597931  0.87745078  0.88016616     0.42700
H691        H  0.16106687  0.76884762  0.77442615     0.42800
H692        H  0.97781721  0.66469072  0.70454910     0.43200
O693        O  0.80386266  0.04989592  0.68530913    -0.75700
O694        O  0.85716576  0.01568470  0.67880249    -0.54600
C695        C  0.83198505  0.03858146  0.66652423     0.78000
O696        O  0.83466501  0.03024648  0.88696940    -0.60300
O697        O  0.77250770  0.02914722  0.89049455    -0.53300
C698        C  0.80413030  0.04119283  0.90139436     0.70100
O699        O  0.91701661  0.03583729  0.80259367    -0.74800
O700        O  0.91862901  0.02567867  0.74118384    -0.55400
C701        C  0.93012632  0.04252950  0.77038583     0.76100
O702        O  0.71515451  0.05475618  0.77106071    -0.60000
O703        O  0.70956388  0.02586430  0.82761154    -0.53100
C704        C  0.69715435  0.04657955  0.80085614     0.72700
Zr705      Zr  0.77599801  0.03713493  0.74588077     2.54700
O706        O  0.77806070  0.10451405  0.74467068    -0.80600
O707        O  0.72735350  0.03437014  0.69893771    -0.94000
Zr708      Zr  0.85335356  0.03746344  0.82269922     2.64700
O709        O  0.83666998  0.10094066  0.80617265    -0.98900
O710        O  0.89255596  0.07534992  0.86152892    -0.81000
O711        O  0.84127851  0.03717827  0.75817724    -0.84300
O712        O  0.78868053  0.04050902  0.81056583    -2.19100
O713        O  0.71599825  0.90974419  0.78636317    -0.67700
O714        O  0.70973364  0.94747540  0.83628775    -0.52300
C715        C  0.69884585  0.92074558  0.81593666     0.71000
O716        O  0.90249894  0.90660671  0.79704201    -0.60600
O717        O  0.92010804  0.93537176  0.74381604    -0.52600
C718        C  0.92416288  0.90994540  0.76927221     0.72800
O719        O  0.82820598  0.93766991  0.89158409    -0.72000
O720        O  0.76669950  0.94199567  0.89201699    -0.50700
C721        C  0.79686985  0.92637422  0.90337397     0.74200
O722        O  0.80647699  0.90363095  0.69610234    -0.67400
O723        O  0.85914750  0.93763116  0.68717595    -0.54600
C724        C  0.83649583  0.91192720  0.67815505     0.72600
Zr725      Zr  0.77326217  0.92737166  0.75128099     2.77500
O726        O  0.77306670  0.85996657  0.75363288    -0.98100
O727        O  0.72657287  0.93298701  0.70255162    -0.78900
Zr728      Zr  0.84951268  0.92898759  0.82886060     2.70100
O729        O  0.82980649  0.86503758  0.83194486    -0.80200
O730        O  0.90175400  0.91232313  0.86877467    -0.99300
Zr731      Zr  0.86720007  0.98023507  0.73680955     2.21500
Zr732      Zr  0.76313709  0.98640072  0.83944179     2.11100
O733        O  0.78564128  0.92885134  0.81590697    -2.48000
O734        O  0.83805998  0.92719710  0.76451921    -0.80000
O735        O  0.74944593  0.98400743  0.77451396    -0.72200
O736        O  0.87908270  0.98049153  0.80168401    -2.28300
O737        O  0.80133651  0.98057952  0.72387118    -2.29300
O738        O  0.82763936  0.98527482  0.85253862    -0.73900
H739        H  0.77776136  0.06259988  0.82086478     0.78100
H740        H  0.90498575  0.97601359  0.80722123     0.79200
H741        H  0.77408913  0.90814813  0.82843523     0.81400
H742        H  0.79693093  0.97921318  0.69752926     0.79000
H743        H  0.90635013  0.05714240  0.87715262     0.42000
H744        H  0.91863914  0.93380138  0.86709331     0.41000
H745        H  0.84499035  0.85262611  0.81287344     0.40700
H746        H  0.77016194  0.85350550  0.78022273     0.38600
H747        H  0.71040232  0.95373547  0.71034278     0.41700
H748        H  0.73674732  0.01679255  0.68028539     0.36500
H749        H  0.80313315  0.11049710  0.73522590     0.42600
H750        H  0.84098925  0.11531803  0.82883991     0.39100
H751        H  0.74912382  0.85306155  0.74217252     0.44000
H752        H  0.72788761  0.05886310  0.68626938     0.42700
H753        H  0.85632569  0.10888556  0.78872586     0.42800
H754        H  0.89232825  0.91278695  0.89446461     0.43200
O755        O  0.72086748  0.77375474  0.06893441    -0.75700
O756        O  0.70600839  0.80484008  0.01671652    -0.54600
C757        C  0.69910911  0.79531919  0.05016165     0.78000
O758        O  0.90864371  0.78924221  0.06846088    -0.60300
O759        O  0.92018287  0.73272966  0.04310779    -0.53300
C760        C  0.92864661  0.76004576  0.06412199     0.70100
O761        O  0.81745895  0.86896985  0.07164349    -0.74800
O762        O  0.76304662  0.87862860  0.04062521    -0.55400
C763        C  0.78719764  0.88703999  0.06624573     0.76100
O764        O  0.80040879  0.67610605  0.06838483    -0.60000
O765        O  0.85708130  0.67147832  0.04004053    -0.53100
C766        C  0.83072617  0.65847672  0.06066513     0.72700
Zr767      Zr  0.77537588  0.73726994  0.04944591     2.54700
O768        O  0.78137844  0.73174792  0.11652124    -0.80600
O769        O  0.71931571  0.70627793  0.02892559    -0.94000
Zr770      Zr  0.84884569  0.81466756  0.05064765     2.64700
O771        O  0.84262240  0.80712931  0.11728303    -0.98900
O772        O  0.89464915  0.86387321  0.05027040    -0.81000
O773        O  0.78351223  0.80297531  0.04975707    -0.84300
O774        O  0.83958739  0.74980984  0.05456158    -2.19100
O775        O  0.81928052  0.67832939  0.92008556    -0.67700
O776        O  0.86614683  0.67193715  0.96171322    -0.52300
C777        C  0.84810910  0.66088924  0.93335183     0.71000
O778        O  0.82671732  0.87199153  0.92150729    -0.60600
O779        O  0.77098562  0.88310768  0.94915920    -0.52600
C780        C  0.79760314  0.89196947  0.92665139     0.72800
O781        O  0.91156425  0.78426890  0.92588156    -0.72000
O782        O  0.92322153  0.73079499  0.95837087    -0.50700
C783        C  0.93162046  0.75556960  0.93342560     0.74200
O784        O  0.71874030  0.75304849  0.92871126    -0.67400
O785        O  0.70925196  0.81081458  0.95224595    -0.54600
C786        C  0.69878614  0.78214426  0.93366535     0.72600
Zr787      Zr  0.78272990  0.73369041  0.94019474     2.77500
O788        O  0.78688720  0.73804135  0.87285743    -0.98100
O789        O  0.73502564  0.68775830  0.95251155    -0.78900
Zr790      Zr  0.85347113  0.81379625  0.94217013     2.70100
O791        O  0.85076674  0.80889520  0.87551270    -0.80200
O792        O  0.90240820  0.85991001  0.94457639    -0.99300
Zr793      Zr  0.76317174  0.82854174  0.99130922     2.21500
Zr794      Zr  0.86822408  0.72541453  0.00002887     2.11100
O795        O  0.84601810  0.74845544  0.94137206    -2.48000
O796        O  0.78858909  0.80028126  0.93667283    -0.80000
O797        O  0.80348570  0.70770824  0.99745714    -0.72200
O798        O  0.82704660  0.84288578  0.99463223    -2.33100
O799        O  0.79074799  0.76930256  0.99423065    -2.29300
O800        O  0.87903572  0.79028853  0.99828892    -0.73900
H801        H  0.85004499  0.73892256  0.07689442     0.78100
H802        H  0.83133508  0.86926051  0.99471236     0.79200
H803        H  0.85868072  0.73767350  0.92052782     0.81400
H804        H  0.81700351  0.77425122  0.99580990     0.79000
H805        H  0.91152220  0.85782330  0.02956010     0.42000
H806        H  0.89287973  0.87908247  0.96151116     0.41000
H807        H  0.82483206  0.80178572  0.87017430     0.40700
H808        H  0.81268432  0.73065769  0.86683080     0.38600
H809        H  0.74895936  0.66495217  0.95945392     0.41700
H810        H  0.70640352  0.72488903  0.01306903     0.36500
H811        H  0.76024938  0.71603574  0.12421856     0.42600
H812        H  0.81626709  0.80030947  0.12069117     0.39100
H813        H  0.77144120  0.71742484  0.86387715     0.44000
H814        H  0.70362927  0.70400920  0.05133253     0.42700
H815        H  0.85643449  0.78408719  0.12349121     0.42800
H816        H  0.92291539  0.84780542  0.95861602     0.43200
C817        C  0.97255848  0.55821930  0.86277460    -0.02200
C818        C  0.94146581  0.54114879  0.84780383     0.07400
C819        C  0.92088151  0.55960876  0.81976566    -0.02400
C820        C  0.92949675  0.59643149  0.80963867    -0.02400
C821        C  0.95761251  0.61540775  0.82911190     0.07600
C822        C  0.97798797  0.59593268  0.85708445    -0.02600
Br823      Br  0.01190893  0.61949192  0.89090120    -0.01100
Br824      Br  0.00883699  0.53011577  0.89030139    -0.01200
Br825      Br  0.90061926  0.62066633  0.77121058    -0.01100
Br826      Br  0.88465902  0.53257312  0.79180989    -0.01100
C827        C  0.90950607  0.57549047  0.92432928    -0.02200
C828        C  0.88688506  0.54954544  0.90604997     0.07400
C829        C  0.85238557  0.56268810  0.89149956    -0.02400
C830        C  0.83908125  0.59898750  0.89928302    -0.02400
C831        C  0.86218907  0.62469816  0.91751645     0.07600
C832        C  0.89885995  0.61294451  0.92662340    -0.02600
Br833      Br  0.93645068  0.64802096  0.94145930    -0.01100
Br834      Br  0.95438230  0.56123915  0.94966566    -0.01200
Br835      Br  0.78854998  0.61186444  0.88633932    -0.01100
Br836      Br  0.82270345  0.53126601  0.86052550    -0.01100
C837        C  0.94465307  0.37210450  0.78720026    -0.02200
C838        C  0.93501017  0.33952050  0.80674491     0.07400
C839        C  0.90508928  0.34126191  0.83152949    -0.02400
C840        C  0.88957102  0.37604326  0.84000457    -0.02400
C841        C  0.91094810  0.40817054  0.83348352     0.07600
C842        C  0.93061938  0.40656892  0.79950591    -0.02600
Br843      Br  0.92409332  0.44525897  0.76357757    -0.01100
Br844      Br  0.97826202  0.37001752  0.74588234    -0.01200
Br845      Br  0.83838745  0.37976268  0.82555514    -0.01100
Br846      Br  0.87993551  0.29629493  0.84562495    -0.01100
C847        C  0.83769237  0.40151669  0.91004062    -0.02200
C848        C  0.87604197  0.40984334  0.91119849     0.07400
C849        C  0.90129403  0.38240709  0.92303146    -0.02400
C850        C  0.88959494  0.34630277  0.92895265    -0.02400
C851        C  0.85136932  0.33752488  0.92855328     0.07600
C852        C  0.82529281  0.36548617  0.91928698    -0.02600
Br853      Br  0.77307934  0.35446592  0.91691401    -0.01100
Br854      Br  0.80260336  0.43702950  0.89024472    -0.01200
Br855      Br  0.92798672  0.30896234  0.93322374    -0.01100
Br856      Br  0.95269198  0.39287270  0.93115374    -0.01100
C857        C  0.92222079  0.55852235  0.17876258    -0.02200
C858        C  0.92727698  0.55003202  0.14047620     0.07400
C859        C  0.93757138  0.58005055  0.11706977    -0.02400
C860        C  0.93693143  0.61654048  0.12969849    -0.02400
C861        C  0.93706923  0.62430435  0.16789753     0.07600
C862        C  0.92951666  0.59469465  0.19259695    -0.02600
Br863      Br  0.92917498  0.60353974  0.24511708    -0.01100
Br864      Br  0.90381201  0.52204452  0.21288458    -0.01200
Br865      Br  0.93465534  0.65606398  0.09324681    -0.01100
Br866      Br  0.96134826  0.57351853  0.07033473    -0.01100
C867        C  0.84490218  0.59455252  0.04390430    -0.02200
C868        C  0.83532177  0.61874490  0.07195804     0.07400
C869        C  0.83456894  0.60432571  0.10846853    -0.02400
C870        C  0.84503774  0.56654425  0.11508581    -0.02400
C871        C  0.86488230  0.54635663  0.08758874     0.07600
C872        C  0.86546399  0.56269713  0.05197224    -0.02600
Br873      Br  0.89788564  0.54782537  0.01454650    -0.01100
Br874      Br  0.82322018  0.60126277  0.99580184    -0.01200
Br875      Br  0.82814086  0.54188406  0.15921520    -0.01100
Br876      Br  0.82040048  0.63569410  0.14866138    -0.01100
C877        C  0.92494395  0.39725467  0.18360357    -0.02200
C878        C  0.93097337  0.40865895  0.14620193     0.07400
C879        C  0.94626654  0.38271369  0.12181473    -0.02400
C880        C  0.95096304  0.34569022  0.13282269    -0.02400
C881        C  0.95046560  0.33536517  0.17082262     0.07600
C882        C  0.93768424  0.36195460  0.19642471    -0.02600
Br883      Br  0.93717012  0.35085765  0.24875355    -0.01100
Br884      Br  0.89525717  0.42720114  0.21649694    -0.01200
Br885      Br  0.95065988  0.30893607  0.09428459    -0.01100
Br886      Br  0.95914127  0.39657455  0.07221382    -0.01100
C887        C  0.86136881  0.37573056  0.12504153    -0.02200
C888        C  0.85950848  0.40693685  0.10084291     0.07400
C889        C  0.82924721  0.40409866  0.07608554    -0.02400
C890        C  0.82093313  0.36906922  0.06082018    -0.02400
C891        C  0.83744578  0.33672960  0.07624181     0.07600
C892        C  0.85601350  0.34011017  0.11034605    -0.02600
Br893      Br  0.86324432  0.29677919  0.14149318    -0.01100
Br894      Br  0.83474720  0.38109656  0.17054651    -0.01200
Br895      Br  0.78526385  0.36567418  0.02138987    -0.01100
Br896      Br  0.78708781  0.43429318  0.08702188    -0.01100
C897        C  0.90766397  0.46469997  0.98240653    -0.02200
C898        C  0.87968344  0.47736328  0.95765068     0.07400
C899        C  0.84521878  0.48691745  0.97554550    -0.02400
C900        C  0.84150595  0.48549363  0.01565251    -0.02400
C901        C  0.87042578  0.46972488  0.03857566     0.07600
C902        C  0.89862585  0.45165119  0.01820764    -0.02600
Br903      Br  0.89206323  0.39939100  0.01373878    -0.01100
Br904      Br  0.95920192  0.47065333  0.97165860    -0.01200
Br905      Br  0.79830424  0.50832602  0.03756864    -0.01100
Br906      Br  0.80451423  0.50760143  0.94801814    -0.01100
C907        C  0.10642242  0.57957529  0.11785706    -0.02200
C908        C  0.11319257  0.54951784  0.14221395     0.07400
C909        C  0.11229838  0.55582852  0.18106776    -0.02400
C910        C  0.10279757  0.59116365  0.19465990    -0.02400
C911        C  0.09782442  0.62111721  0.16969398     0.07600
C912        C  0.10358595  0.61527221  0.13154705    -0.02600
Br913      Br  0.10981267  0.65575576  0.09721996    -0.01100
Br914      Br  0.09228182  0.57199370  0.06700115    -0.01200
Br915      Br  0.09528565  0.59777055  0.24709830    -0.01100
Br916      Br  0.12414195  0.51716772  0.21635344    -0.01100
C917        C  0.21457565  0.59035268  0.05641100    -0.02200
C918        C  0.21279738  0.61653148  0.08410151     0.07400
C919        C  0.20314667  0.60358115  0.11972288    -0.02400
C920        C  0.19290759  0.56569410  0.12453836    -0.02400
C921        C  0.17981381  0.54486347  0.09367018     0.07600
C922        C  0.19134795  0.55947880  0.05831867    -0.02600
Br923      Br  0.16585995  0.55611263  0.01239657    -0.01100
Br924      Br  0.24670155  0.59885764  0.01486394    -0.01200
Br925      Br  0.20283069  0.54167276  0.17125994    -0.01100
Br926      Br  0.20447143  0.63644245  0.16104103    -0.01100
C927        C  0.12640989  0.39366530  0.18017953    -0.02200
C928        C  0.10756484  0.40980184  0.14926898     0.07400
C929        C  0.07814913  0.39000333  0.13389778    -0.02400
C930        C  0.07324267  0.35243260  0.14234446    -0.02400
C931        C  0.09241397  0.33538160  0.17266558     0.07600
C932        C  0.11821736  0.35702690  0.19244193    -0.02600
Br933      Br  0.14468241  0.33615597  0.23443537    -0.01100
Br934      Br  0.15899357  0.42356599  0.20946883    -0.01200
Br935      Br  0.04311597  0.32529517  0.10757803    -0.01100
Br936      Br  0.04387000  0.41339051  0.10045603    -0.01100
C937        C  0.15999375  0.38822178  0.06075060    -0.02200
C938        C  0.16933373  0.40607622  0.09384458     0.07400
C939        C  0.19782941  0.38849081  0.11552817    -0.02400
C940        C  0.20848562  0.35095889  0.10791563    -0.02400
C941        C  0.19829347  0.33558210  0.07333416     0.07600
C942        C  0.18315320  0.36031818  0.04769271    -0.02600
Br943      Br  0.21836581  0.37337180  0.01050156    -0.01100
Br944      Br  0.10996852  0.37503965  0.05448873    -0.01200
Br945      Br  0.23715123  0.32271944  0.14343914    -0.01100
Br946      Br  0.22719261  0.41683725  0.14907560    -0.01100
C947        C  0.00093381  0.49230355  0.11309605    -0.02200
C948        C  0.97814328  0.47927355  0.14217248     0.07400
C949        C  0.99883971  0.46886060  0.17512148    -0.02400
C950        C  0.03909275  0.46738620  0.17488749    -0.02400
C951        C  0.05952328  0.48458296  0.14529762     0.07600
C952        C  0.03648440  0.50612667  0.12130614    -0.02600
Br953      Br  0.02645008  0.55445718  0.14083365    -0.01100
Br954      Br  0.98641358  0.48772880  0.06244176    -0.01200
Br955      Br  0.06399504  0.44615646  0.21741637    -0.01100
Br956      Br  0.97611890  0.46238164  0.22237965    -0.01100
C957        C  0.08787036  0.54863108  0.81200578    -0.02200
C958        C  0.11912115  0.53947346  0.83372569     0.07400
C959        C  0.14823951  0.56533038  0.82912169    -0.02400
C960        C  0.13965622  0.60353197  0.82417326    -0.02400
C961        C  0.10230670  0.61446982  0.81840036     0.07600
C962        C  0.07669375  0.58625627  0.80987662    -0.02600
Br963      Br  0.03358036  0.59907015  0.78098830    -0.01100
Br964      Br  0.09245357  0.53013646  0.76265326    -0.01200
Br965      Br  0.17854403  0.63975006  0.82504702    -0.01100
Br966      Br  0.19590717  0.54734509  0.81420167    -0.01100
C967        C  0.13934390  0.57682885  0.91252826    -0.02200
C968        C  0.16224111  0.54562934  0.90655607     0.07400
C969        C  0.20135267  0.55103115  0.90855608    -0.02400
C970        C  0.21625640  0.58540873  0.91994539    -0.02400
C971        C  0.19224870  0.61520535  0.92850380     0.07600
C972        C  0.15414139  0.61122703  0.92153847    -0.02600
Br973      Br  0.12215905  0.65433370  0.91893474    -0.01100
Br974      Br  0.08739949  0.57518056  0.90539760    -0.01200
Br975      Br  0.26941463  0.59174230  0.92160777    -0.01100
Br976      Br  0.23519428  0.51402006  0.89062011    -0.01100
C977        C  0.11289016  0.36867865  0.79090102    -0.02200
C978        C  0.10685585  0.33611578  0.81191703     0.07400
C979        C  0.11569449  0.33661490  0.84926715    -0.02400
C980        C  0.10948742  0.36922922  0.86765417    -0.02400
C981        C  0.11608917  0.40334366  0.84893307     0.07600
C982        C  0.12276718  0.40142964  0.80999311    -0.02600
Br983      Br  0.14704255  0.44127515  0.78357052    -0.01100
Br984      Br  0.10836994  0.36825780  0.73785739    -0.01200
Br985      Br  0.07374145  0.36214980  0.90588544    -0.01100
Br986      Br  0.12610424  0.29140890  0.87604441    -0.01100
C987        C  0.19712671  0.39193082  0.89256039    -0.02200
C988        C  0.16709892  0.40700577  0.91290813     0.07400
C989        C  0.15194118  0.38565982  0.94169503    -0.02400
C990        C  0.16239524  0.34853689  0.94710958    -0.02400
C991        C  0.19381904  0.33359289  0.92829425     0.07600
C992        C  0.21139079  0.35601832  0.90115324    -0.02600
Br993      Br  0.25194987  0.33636542  0.87254210    -0.01100
Br994      Br  0.21835378  0.42033196  0.85244982    -0.01200
Br995      Br  0.13017635  0.31914111  0.97914757    -0.01100
Br996      Br  0.11340711  0.40551746  0.97169594    -0.01100
C997        C  0.19420596  0.46885135  0.01962136    -0.02200
C998        C  0.16176005  0.47391318  0.04104290     0.07400
C999        C  0.12843152  0.47973308  0.02141455    -0.02400
C1000       C  0.12816135  0.48698544  0.98288389    -0.02400
C1001       C  0.15914074  0.47857710  0.95998621     0.07600
C1002       C  0.19235004  0.46774953  0.97973106    -0.02600
Br1003     Br  0.23567253  0.45037598  0.95438686    -0.01100
Br1004     Br  0.24106988  0.46490638  0.04521704    -0.01200
Br1005     Br  0.08467539  0.51122104  0.96474865    -0.01100
Br1006     Br  0.08190882  0.47840581  0.04664320    -0.01100
C1007       C  0.03558249  0.44968676  0.87439518    -0.02200
C1008       C  0.05936966  0.46754030  0.84829413     0.07400
C1009       C  0.04066437  0.47628098  0.81432915    -0.02400
C1010       C  0.00141049  0.48268824  0.81455675    -0.02400
C1011       C  0.97869827  0.46362876  0.84134959     0.07600
C1012       C  0.99923107  0.43990873  0.86505218    -0.02600
Br1013     Br  0.99917600  0.38843742  0.85376497    -0.01100
Br1014     Br  0.04491723  0.44441943  0.92547041    -0.01200
Br1015     Br  0.98286103  0.51296713  0.77448034    -0.01100
Br1016     Br  0.05461983  0.44954397  0.77095998    -0.01100
C1017       C  0.59915417  0.88309184  0.81954743    -0.02200
C1018       C  0.59246986  0.88335048  0.85837790     0.07400
C1019       C  0.62214067  0.89286781  0.88182138    -0.02400
C1020       C  0.65738244  0.90042968  0.86761435    -0.02400
C1021       C  0.66367597  0.90279608  0.82903697     0.07600
C1022       C  0.63451151  0.89265230  0.80495903    -0.02600
Br1023     Br  0.64266953  0.89083623  0.75212465    -0.01100
Br1024     Br  0.56188507  0.86507767  0.78614272    -0.01200
Br1025     Br  0.69794390  0.90255240  0.90248246    -0.01100
Br1026     Br  0.61664347  0.89516672  0.93417220    -0.01100
C1027       C  0.63126999  0.76076941  0.92658209    -0.02200
C1028       C  0.66147380  0.78321583  0.91517777     0.07400
C1029       C  0.65602421  0.80451262  0.88285462    -0.02400
C1030       C  0.61952156  0.81004126  0.86946898    -0.02400
C1031       C  0.58926737  0.80445756  0.89376229     0.07600
C1032       C  0.59429806  0.77090831  0.91501669    -0.02600
Br1033     Br  0.55398739  0.74008382  0.93091746    -0.01100
Br1034     Br  0.63924603  0.72251764  0.96355993    -0.01200
Br1035     Br  0.61192714  0.79428037  0.81957188    -0.01100
Br1036     Br  0.69823216  0.81618240  0.85222969    -0.01100
C1037       C  0.39786915  0.92388024  0.85875537    -0.02200
C1038       C  0.38465881  0.90762318  0.82532877     0.07400
C1039       C  0.40678207  0.87966331  0.80897597    -0.02400
C1040       C  0.44040318  0.86769437  0.82621644    -0.02400
C1041       C  0.45382283  0.88506384  0.85852259     0.07600
C1042       C  0.43229858  0.91339381  0.87413921    -0.02600
Br1043     Br  0.44761309  0.93574072  0.91943224    -0.01100
Br1044     Br  0.36775786  0.95755141  0.88814191    -0.01200
Br1045     Br  0.46864568  0.82775179  0.80506192    -0.01100
Br1046     Br  0.39284818  0.85883462  0.76205675    -0.01100
C1047       C  0.40818641  0.76878766  0.90539266    -0.02200
C1048       C  0.37777624  0.79267982  0.91277970     0.07400
C1049       C  0.38482993  0.83066257  0.91094002    -0.02400
C1050       C  0.41994302  0.84255688  0.92068126    -0.02400
C1051       C  0.45140136  0.82158640  0.90982379     0.07600
C1052       C  0.44408164  0.78443781  0.89901015    -0.02600
Br1053     Br  0.48139080  0.75544831  0.87494054    -0.01100
Br1054     Br  0.40161423  0.71607231  0.90435238    -0.01200
Br1055     Br  0.41790217  0.86755468  0.96702698    -0.01100
Br1056     Br  0.34534712  0.86641962  0.90549116    -0.01100
C1057       C  0.62623200  0.88722961  0.13607886    -0.02200
C1058       C  0.59053447  0.89093486  0.15216746     0.07400
C1059       C  0.59043941  0.90291755  0.19009878    -0.02400
C1060       C  0.62456966  0.90670370  0.20938664    -0.02400
C1061       C  0.65783694  0.89666588  0.19209266     0.07600
C1062       C  0.65639136  0.87861731  0.15843291    -0.02600
Br1063     Br  0.70145736  0.85968377  0.13648190    -0.01100
Br1064     Br  0.64186478  0.92395465  0.10066703    -0.01200
Br1065     Br  0.62683850  0.92583946  0.25898492    -0.01100
Br1066     Br  0.54778201  0.92274031  0.21494544    -0.01100
C1067       C  0.64408359  0.79251230  0.09543544    -0.02200
C1068       C  0.66397271  0.81041235  0.06638060     0.07400
C1069       C  0.64906654  0.84372369  0.05108954    -0.02400
C1070       C  0.61243028  0.85420072  0.05872678    -0.02400
C1071       C  0.59304944  0.83740413  0.08805583     0.07600
C1072       C  0.60995771  0.80770923  0.10784113    -0.02600
Br1073     Br  0.58482753  0.78659045  0.15025244    -0.01100
Br1074     Br  0.66158249  0.74673448  0.11759623    -0.01200
Br1075     Br  0.58938773  0.89152311  0.02781244    -0.01100
Br1076     Br  0.67841240  0.87761811  0.02104890    -0.01100
C1077       C  0.42371604  0.85069857  0.15413539    -0.02200
C1078       C  0.45665181  0.87014514  0.16122567     0.07400
C1079       C  0.45782689  0.88206779  0.19826200    -0.02400
C1080       C  0.42393234  0.89529880  0.21406382    -0.02400
C1081       C  0.39093532  0.89385231  0.19217836     0.07600
C1082       C  0.39042044  0.86811635  0.16341833    -0.02600
Br1083     Br  0.34406640  0.84807522  0.14631600    -0.01100
Br1084     Br  0.42441249  0.79931146  0.16878040    -0.01200
Br1085     Br  0.42143716  0.90623107  0.26602303    -0.01100
Br1086     Br  0.49167853  0.85524556  0.23003192    -0.01100
C1087       C  0.39195313  0.84643098  0.06311512    -0.02200
C1088       C  0.38429194  0.80794232  0.06413606     0.07400
C1089       C  0.41287996  0.78272683  0.07394183    -0.02400
C1090       C  0.44797466  0.79608467  0.08473888    -0.02400
C1091       C  0.45447791  0.83468809  0.08545421     0.07600
C1092       C  0.42665197  0.85946690  0.07316578    -0.02600
Br1093     Br  0.43392795  0.91227512  0.07236438    -0.01100
Br1094     Br  0.35543220  0.88371940  0.04959765    -0.01200
Br1095     Br  0.48532997  0.76164901  0.10279276    -0.01100
Br1096     Br  0.40499052  0.73012545  0.07104603    -0.01100
C1097       C  0.54888840  0.80461248  0.02521229    -0.02200
C1098       C  0.52180555  0.82753805  0.04197872     0.07400
C1099       C  0.49619532  0.84263863  0.01614418    -0.02400
C1100       C  0.49180683  0.82407847  0.98231744    -0.02400
C1101       C  0.52462215  0.81899395  0.96187562     0.07600
C1102       C  0.55519067  0.80901735  0.98643739    -0.02600
Br1103     Br  0.60613186  0.81800218  0.97897446    -0.01100
Br1104     Br  0.56796046  0.76050686  0.04868564    -0.01200
Br1105     Br  0.46392096  0.77912343  0.98839153    -0.01100
Br1106     Br  0.49515952  0.89508041  0.01318381    -0.01100
C1107       C  0.60484730  0.03063428  0.83521188    -0.02200
C1108       C  0.58932525  0.06638814  0.84205520     0.07400
C1109       C  0.60649923  0.09653969  0.82267199    -0.02400
C1110       C  0.64309236  0.09246006  0.80860323    -0.02400
C1111       C  0.65735322  0.05664013  0.80385509     0.07600
C1112       C  0.63350929  0.02724258  0.80973653    -0.02600
Br1113     Br  0.64135175  0.98258292  0.78314306    -0.01100
Br1114     Br  0.60268377  0.98774521  0.86662312    -0.01200
Br1115     Br  0.67268837  0.13475279  0.79594915    -0.01100
Br1116     Br  0.57961592  0.14147429  0.81205870    -0.01100
C1117       C  0.62887547  0.09618156  0.90967811    -0.02200
C1118       C  0.59811509  0.11964913  0.90319002     0.07400
C1119       C  0.60476967  0.15850915  0.90092957    -0.02400
C1120       C  0.64097907  0.17271100  0.90765542    -0.02400
C1121       C  0.67164700  0.14821417  0.91142150     0.07600
C1122       C  0.66486230  0.11004139  0.90801587    -0.02600
Br1123     Br  0.70469207  0.07573753  0.90039221    -0.01100
Br1124     Br  0.62262520  0.04772914  0.93147713    -0.01200
Br1125     Br  0.64769165  0.22513258  0.91367970    -0.01100
Br1126     Br  0.56514009  0.19273981  0.88935286    -0.01100
C1127       C  0.44521493  0.08079953  0.81745022    -0.02200
C1128       C  0.45319358  0.06999108  0.85480666     0.07400
C1129       C  0.42380169  0.05624838  0.87591168    -0.02400
C1130       C  0.38757166  0.05947748  0.86320831    -0.02400
C1131       C  0.38003823  0.06169676  0.82493329     0.07600
C1132       C  0.40953449  0.07338664  0.80164163    -0.02600
Br1133     Br  0.40162262  0.07973721  0.74924505    -0.01100
Br1134     Br  0.48211891  0.10624664  0.78834606    -0.01200
Br1135     Br  0.34890515  0.06294424  0.89952684    -0.01100
Br1136     Br  0.43199096  0.02549427  0.91818510    -0.01100
C1137       C  0.43925411  0.10918627  0.94878237    -0.02200
C1138       C  0.45701668  0.12238207  0.91640278     0.07400
C1139       C  0.43851411  0.14996105  0.89467745    -0.02400
C1140       C  0.40200502  0.16197646  0.90350331    -0.02400
C1141       C  0.38306142  0.14638663  0.93422461     0.07600
C1142       C  0.40243519  0.11957663  0.95665929    -0.02600
Br1143     Br  0.37920429  0.09261385  0.99714313    -0.01100
Br1144     Br  0.46374717  0.07525520  0.98301753    -0.01200
Br1145     Br  0.37726100  0.19727446  0.87105818    -0.01100
Br1146     Br  0.46456422  0.17383369  0.85445921    -0.01100
C1147       C  0.52355418  0.99408587  0.89637406    -0.02200
C1148       C  0.51970976  0.01424457  0.86272568     0.07400
C1149       C  0.51635393  0.99314233  0.83006432    -0.02400
C1150       C  0.51489037  0.95341702  0.83158371    -0.02400
C1151       C  0.52312385  0.93314977  0.86505220     0.07600
C1152       C  0.52760227  0.95497254  0.89708914    -0.02600
Br1153     Br  0.53720827  0.93179019  0.94384791    -0.01100
Br1154     Br  0.52877941  0.02010264  0.94199636    -0.01200
Br1155     Br  0.49773990  0.92911210  0.78796604    -0.01100
Br1156     Br  0.51733958  0.01804991  0.78271551    -0.01100
C1157       C  0.65681864  0.10026974  0.16457025    -0.02200
C1158       C  0.66031937  0.07008905  0.18924830     0.07400
C1159       C  0.62909394  0.06197249  0.21154875    -0.02400
C1160       C  0.59322203  0.07372827  0.19904154    -0.02400
C1161       C  0.58994773  0.09153533  0.16401610     0.07600
C1162       C  0.62097454  0.11413647  0.15639573    -0.02600
Br1163     Br  0.61419288  0.16637046  0.16228943    -0.01100
Br1164     Br  0.70033438  0.12686311  0.14901065    -0.01200
Br1165     Br  0.55257535  0.07449489  0.23277177    -0.01100
Br1166     Br  0.63485087  0.03257786  0.25609512    -0.01100
C1167       C  0.65564253  0.10807321  0.06680281    -0.02200
C1168       C  0.66194171  0.14623499  0.06042708     0.07400
C1169       C  0.63211425  0.17128473  0.06408722    -0.02400
C1170       C  0.59695730  0.15854456  0.07601711    -0.02400
C1171       C  0.59070570  0.12026266  0.08348729     0.07600
C1172       C  0.62080088  0.09525272  0.07805056    -0.02600
Br1173     Br  0.61815149  0.04334850  0.09071206    -0.01100
Br1174     Br  0.69520385  0.07188970  0.06259678    -0.01200
Br1175     Br  0.56045909  0.19525498  0.08785493    -0.01100
Br1176     Br  0.63860350  0.22279231  0.05063755    -0.01100
C1177       C  0.45365308  0.04123780  0.18846448    -0.02200
C1178       C  0.46081012  0.07521267  0.16912272     0.07400
C1179       C  0.43457484  0.10341808  0.17661791    -0.02400
C1180       C  0.39688353  0.09412638  0.18191596    -0.02400
C1181       C  0.38771315  0.05669867  0.18736135     0.07600
C1182       C  0.41658536  0.03245598  0.19744235    -0.02600
Br1183     Br  0.40466201  0.99182522  0.23013114    -0.01100
Br1184     Br  0.49144868  0.01148350  0.21256588    -0.01200
Br1185     Br  0.35965083  0.13232515  0.18539120    -0.01100
Br1186     Br  0.45245784  0.14612422  0.20157868    -0.01100
C1187       C  0.41547237  0.09652537  0.09355798    -0.02200
C1188       C  0.44749700  0.11943016  0.09741177     0.07400
C1189       C  0.43986423  0.15794043  0.10175518    -0.02400
C1190       C  0.40497302  0.17342472  0.09072076    -0.02400
C1191       C  0.37528094  0.14983525  0.08209980     0.07600
C1192       C  0.37995391  0.11208935  0.08925240    -0.02600
Br1193     Br  0.33603080  0.08275449  0.09832547    -0.01100
Br1194     Br  0.41480403  0.04412805  0.09900942    -0.01200
Br1195     Br  0.39809402  0.22630014  0.08846604    -0.01100
Br1196     Br  0.47524690  0.18958359  0.12599512    -0.01100
C1197       C  0.49381522  0.00265909  0.12246816    -0.02200
C1198       C  0.52680083  0.02042374  0.13520766     0.07400
C1199       C  0.55667722  0.99439270  0.13994263    -0.02400
C1200       C  0.55218151  0.95861162  0.12657497    -0.02400
C1201       C  0.51875998  0.94012090  0.13454077     0.07600
C1202       C  0.48773225  0.96520363  0.13346888    -0.02600
Br1203     Br  0.43825618  0.95568218  0.14804082    -0.01100
Br1204     Br  0.48509554  0.00650279  0.06998136    -0.01200
Br1205     Br  0.56320134  0.95912247  0.07528820    -0.01100
Br1206     Br  0.60094832  0.99683219  0.16770484    -0.01100
C1207       C  0.51067102  0.15233896  0.97757833    -0.02200
C1208       C  0.53287539  0.12584532  0.95891829     0.07400
C1209       C  0.55577593  0.10494887  0.98253824    -0.02400
C1210       C  0.54257123  0.09484837  0.01757691    -0.02400
C1211       C  0.52014226  0.11899536  0.03923494     0.07600
C1212       C  0.50603742  0.15035724  0.01746151    -0.02600
Br1213     Br  0.48174571  0.19254983  0.03725064    -0.01100
Br1214     Br  0.49267490  0.19497855  0.94986559    -0.01200
Br1215     Br  0.55449470  0.04550849  0.03022822    -0.01100
Br1216     Br  0.60446605  0.12446109  0.98852521    -0.01100
C1217       C  0.94964818  0.77750216  0.57187944    -0.02200
C1218       C  0.92078428  0.80395375  0.56776789     0.07400
C1219       C  0.89531196  0.80069261  0.59771814    -0.02400
C1220       C  0.90921598  0.79448010  0.63435564    -0.02400
C1221       C  0.94719579  0.78548345  0.63940557     0.07600
C1222       C  0.96509821  0.77103391  0.60793051    -0.02600
Br1223     Br  0.00235922  0.73291252  0.61566055    -0.01100
Br1224     Br  0.93913571  0.73209387  0.54731517    -0.01200
Br1225     Br  0.87594149  0.79290620  0.67606901    -0.01100
Br1226     Br  0.84458984  0.78883808  0.58739925    -0.01100
C1227       C  0.90022077  0.87883527  0.60346457    -0.02200
C1228       C  0.87605734  0.87555919  0.57220803     0.07400
C1229       C  0.83712881  0.87691928  0.57889122    -0.02400
C1230       C  0.82299322  0.88504486  0.61456259    -0.02400
C1231       C  0.84761219  0.89163231  0.64414213     0.07600
C1232       C  0.88574401  0.88518834  0.63874392    -0.02600
Br1233     Br  0.91863755  0.88195729  0.68073320    -0.01100
Br1234     Br  0.95413468  0.87555487  0.59998218    -0.01200
Br1235     Br  0.76999748  0.88713635  0.62258658    -0.01100
Br1236     Br  0.80268296  0.86099769  0.54185508    -0.01100
C1237       C  0.89335782  0.85367086  0.38962332    -0.02200
C1238       C  0.87590708  0.86938511  0.42502931     0.07400
C1239       C  0.83831217  0.87913617  0.42225318    -0.02400
C1240       C  0.82516190  0.89719378  0.39016110    -0.02400
C1241       C  0.84615322  0.89501283  0.35777660     0.07600
C1242       C  0.87252462  0.86609103  0.35610360    -0.02600
Br1243     Br  0.86471193  0.83874684  0.31015797    -0.01100
Br1244     Br  0.98312591  0.80280138  0.39064799    -0.01200
Br1245     Br  0.77565537  0.91768964  0.38863491    -0.01100
Br1246     Br  0.80443634  0.84678583  0.44769089    -0.01100
C1247       C  0.95533004  0.86543860  0.40641358    -0.02200
C1248       C  0.93812108  0.83321118  0.43363107     0.07400
C1249       C  0.91725089  0.79777810  0.41586559    -0.02400
C1250       C  0.91533823  0.79341241  0.37169144    -0.02400
C1251       C  0.93460117  0.82352220  0.34446756     0.07600
C1252       C  0.95291924  0.86056775  0.36204238    -0.02600
Br1253     Br  0.96622020  0.90191397  0.33078082    -0.01100
Br1254     Br  0.96417282  0.91412999  0.42436289    -0.01200
Br1255     Br  0.89340752  0.74926789  0.35251741    -0.01100
Br1256     Br  0.88783914  0.76545741  0.44661876    -0.01100
C1257       C  0.92061624  0.09429403  0.60181203    -0.02200
C1258       C  0.91841393  0.11706210  0.56935605     0.07400
C1259       C  0.92174252  0.15599868  0.57412088    -0.02400
C1260       C  0.93279847  0.17085358  0.60855992    -0.02400
C1261       C  0.93789242  0.14736143  0.63960658     0.07600
C1262       C  0.92830220  0.10991034  0.63636770    -0.02600
Br1263     Br  0.92399790  0.07984432  0.68003849    -0.01100
Br1264     Br  0.91986717  0.04074476  0.60024660    -0.01200
Br1265     Br  0.94131720  0.22328554  0.61276687    -0.01100
Br1266     Br  0.90748242  0.19009146  0.53536800    -0.01100
C1267       C  0.83259686  0.02373020  0.59895664    -0.02200
C1268       C  0.83394595  0.05059579  0.62690851     0.07400
C1269       C  0.83254567  0.08823707  0.61540677    -0.02400
C1270       C  0.83949462  0.09737071  0.57769450    -0.02400
C1271       C  0.85061592  0.06920913  0.55318411     0.07600
C1272       C  0.83582734  0.03427491  0.56152967    -0.02600
Br1273     Br  0.79230636  0.02181727  0.53402139    -0.01100
Br1274     Br  0.81751185  0.97450063  0.61035672    -0.01200
Br1275     Br  0.82771527  0.14562883  0.55812174    -0.01100
Br1276     Br  0.82291128  0.12682556  0.65036271    -0.01100
C1277       C  0.96998142  0.11205810  0.37065546    -0.02200
C1278       C  0.95012316  0.14215497  0.35347894     0.07400
C1279       C  0.92468376  0.16217763  0.37551992    -0.02400
C1280       C  0.91845356  0.15153094  0.41304629    -0.02400
C1281       C  0.93827427  0.12145744  0.42970220     0.07600
C1282       C  0.96600929  0.10418473  0.40873425    -0.02600
Br1283     Br  0.00042231  0.07065563  0.43242053    -0.01100
Br1284     Br  0.00242704  0.07903993  0.34351803    -0.01200
Br1285     Br  0.88392818  0.17987843  0.44194121    -0.01100
Br1286     Br  0.89560643  0.20217251  0.35392018    -0.01100
C1287       C  0.89006980  0.03160092  0.36385685    -0.02200
C1288       C  0.85982166  0.05228926  0.34829128     0.07400
C1289       C  0.84147839  0.07876464  0.37047912    -0.02400
C1290       C  0.85250315  0.08356378  0.40756606    -0.02400
C1291       C  0.88355914  0.06417563  0.42205039     0.07600
C1292       C  0.90139011  0.03750822  0.40039047    -0.02600
Br1293     Br  0.93910510  0.00580434  0.42129634    -0.01100
Br1294     Br  0.91676724  0.99330213  0.33731920    -0.01200
Br1295     Br  0.82122247  0.11182939  0.44038156    -0.01100
Br1296     Br  0.80228437  0.11006388  0.35065967    -0.01100
C1297       C  0.90447024  0.95345735  0.51689869    -0.02200
C1298       C  0.87718950  0.92988068  0.50102205     0.07400
C1299       C  0.84813694  0.95033763  0.48250706    -0.02400
C1300       C  0.85017000  0.98974811  0.47564243    -0.02400
C1301       C  0.87955634  0.01132214  0.49047587     0.07600
C1302       C  0.90871128  0.99072805  0.50641265    -0.02600
Br1303     Br  0.95674625  0.01204300  0.51384238    -0.01100
Br1304     Br  0.91577855  0.95195488  0.56824411    -0.01200
Br1305     Br  0.81247937  0.01247258  0.44464643    -0.01100
Br1306     Br  0.79902473  0.93093672  0.48187936    -0.01100
C1307       C  0.21086350  0.07007820  0.61408582    -0.02200
C1308       C  0.19505293  0.04113642  0.63555831     0.07400
C1309       C  0.16768835  0.01876258  0.61820465    -0.02400
C1310       C  0.15786303  0.02408554  0.58081055    -0.02400
C1311       C  0.16957400  0.05592706  0.56116177     0.07600
C1312       C  0.19743084  0.07798096  0.57769926    -0.02600
Br1313     Br  0.21763980  0.11917122  0.55020975    -0.01100
Br1314     Br  0.24807075  0.10168984  0.63522060    -0.01200
Br1315     Br  0.12409763  0.98876063  0.55994426    -0.01100
Br1316     Br  0.13728172  0.98365410  0.64514483    -0.01100
C1317       C  0.11031327  0.11298742  0.63626820    -0.02200
C1318       C  0.10813451  0.15136327  0.64010380     0.07400
C1319       C  0.11693696  0.17356373  0.60876673    -0.02400
C1320       C  0.12480105  0.15628297  0.57429063    -0.02400
C1321       C  0.11647143  0.11809283  0.56936630     0.07600
C1322       C  0.10691935  0.09750153  0.60148677    -0.02600
Br1323     Br  0.07888211  0.05315219  0.60133423    -0.01100
Br1324     Br  0.11635823  0.08113494  0.67903818    -0.01200
Br1325     Br  0.14663965  0.18507449  0.53444983    -0.01100
Br1326     Br  0.11810351  0.22658551  0.61245429    -0.01100
C1327       C  0.14348563  0.15434626  0.41029300    -0.02200
C1328       C  0.11563211  0.14407256  0.43598842     0.07400
C1329       C  0.08182918  0.16291176  0.42933255    -0.02400
C1330       C  0.06916498  0.16569611  0.39231562    -0.02400
C1331       C  0.09499330  0.16265359  0.36304912     0.07600
C1332       C  0.13321685  0.16244527  0.37292651    -0.02600
Br1333     Br  0.17091355  0.17272557  0.33656873    -0.01100
Br1334     Br  0.19208143  0.16600724  0.42814404    -0.01200
Br1335     Br  0.02190567  0.18874119  0.38254038    -0.01100
Br1336     Br  0.08198706  0.21188472  0.44937270    -0.01100
C1337       C  0.14087881  0.07510151  0.38857714    -0.02200
C1338       C  0.16305219  0.07545138  0.42152680     0.07400
C1339       C  0.20239151  0.07483225  0.41683864    -0.02400
C1340       C  0.21851601  0.06880641  0.38156992    -0.02400
C1341       C  0.19572209  0.06623007  0.34999361     0.07600
C1342       C  0.15767095  0.07309885  0.35361275    -0.02600
Br1343     Br  0.12894823  0.08109362  0.30919458    -0.01100
Br1344     Br  0.08737056  0.07867023  0.38802376    -0.01200
Br1345     Br  0.27132293  0.06099139  0.37711726    -0.01100
Br1346     Br  0.23507386  0.08649770  0.45711544    -0.01100
C1347       C  0.03826616  0.08592543  0.51120676    -0.02200
C1348       C  0.05933080  0.11785417  0.50331169     0.07400
C1349       C  0.03790092  0.15124399  0.50237890    -0.02400
C1350       C  0.99878421  0.14986785  0.49593986    -0.02400
C1351       C  0.97849448  0.11800827  0.50757665     0.07600
C1352       C  0.00103112  0.08901902  0.52164199    -0.02600
Br1353     Br  0.99676617  0.07533832  0.57205294    -0.01100
Br1354     Br  0.05778573  0.03696128  0.51255250    -0.01200
Br1355     Br  0.97619351  0.19338091  0.47484640    -0.01100
Br1356     Br  0.05254097  0.19231281  0.53194916    -0.01100
C1357       C  0.15491113  0.79725149  0.59069919    -0.02200
C1358       C  0.11868346  0.81354473  0.56683404     0.07400
C1359       C  0.08386682  0.82961525  0.58935791    -0.02400
C1360       C  0.08420448  0.83294680  0.63253623    -0.02400
C1361       C  0.11800513  0.81625397  0.65737647     0.07600
C1362       C  0.15461317  0.79925339  0.63647438    -0.02600
Br1363     Br  0.19313648  0.77589044  0.66512960    -0.01100
Br1364     Br  0.19293366  0.77004215  0.56585967    -0.01200
Br1365     Br  0.04006179  0.85789241  0.65181151    -0.01100
Br1366     Br  0.03467811  0.81242810  0.57745983    -0.01100
C1367       C  0.15236386  0.88010586  0.64130779    -0.02200
C1368       C  0.19001529  0.89168518  0.64629330     0.07400
C1369       C  0.21461476  0.88665879  0.61662726    -0.02400
C1370       C  0.20077162  0.87634431  0.58180036    -0.02400
C1371       C  0.16214836  0.87201025  0.57591764     0.07600
C1372       C  0.14108570  0.85812376  0.60919686    -0.02600
Br1373     Br  0.09788941  0.76526758  0.61461237    -0.01100
Br1374     Br  0.11619016  0.89790358  0.67638067    -0.01200
Br1375     Br  0.23512023  0.85328476  0.54824288    -0.01100
Br1376     Br  0.26672453  0.89766926  0.62159067    -0.01100
C1377       C  0.08385152  0.83824462  0.36767994    -0.02200
C1378       C  0.09468421  0.80307270  0.35428935     0.07400
C1379       C  0.11530853  0.77952926  0.37873811    -0.02400
C1380       C  0.12609616  0.79232938  0.41443532    -0.02400
C1381       C  0.11148865  0.82610210  0.42824205     0.07600
C1382       C  0.08674267  0.84572700  0.40522598    -0.02600
Br1383     Br  0.04732336  0.87418739  0.42482565    -0.01100
Br1384     Br  0.06471343  0.87844093  0.33645767    -0.01200
Br1385     Br  0.15732619  0.76135295  0.44544406    -0.01100
Br1386     Br  0.12678996  0.72926487  0.36531836    -0.01100
C1387       C  0.20327623  0.86175876  0.41940359    -0.02200
C1388       C  0.17202082  0.88228902  0.43234672     0.07400
C1389       C  0.16460651  0.91612462  0.41380675    -0.02400
C1390       C  0.19105748  0.93096576  0.39062600    -0.02400
C1391       C  0.21278742  0.90726801  0.36949956     0.07600
C1392       C  0.22027317  0.87182539  0.38499764    -0.02600
Br1393     Br  0.25309139  0.83800690  0.36044538    -0.01100
Br1394     Br  0.22534969  0.82344185  0.44954762    -0.01200
Br1395     Br  0.19288564  0.98316419  0.38522626    -0.01100
Br1396     Br  0.11691614  0.92939760  0.39514066    -0.01100
C1397       C  0.13172097  0.95363797  0.48294859    -0.02200
C1398       C  0.16116565  0.93230967  0.49903988     0.07400
C1399       C  0.19470102  0.95294393  0.50257194    -0.02400
C1400       C  0.19480426  0.99306519  0.50098562    -0.02400
C1401       C  0.16386251  0.01384556  0.48595983     0.07600
C1402       C  0.13522572  0.99133984  0.47235580    -0.02600
Br1403     Br  0.09917846  0.01016217  0.43845465    -0.01100
Br1404     Br  0.08335819  0.93468756  0.47675470    -0.01200
Br1405     Br  0.23885202  0.01725404  0.51802764    -0.01100
Br1406     Br  0.24157918  0.92814399  0.49917856    -0.01100
C1407       C  0.04164096  0.86063479  0.51286485    -0.02200
C1408       C  0.06299411  0.82967249  0.50025509     0.07400
C1409       C  0.04320604  0.79778252  0.48944687    -0.02400
C1410       C  0.00361232  0.79690086  0.49014049    -0.02400
C1411       C  0.98238978  0.82783936  0.50249014     0.07600
C1412       C  0.00258476  0.86039223  0.51023716    -0.02600
Br1413     Br  0.97836194  0.90698094  0.51563932    -0.01100
Br1414     Br  0.06073505  0.89670020  0.54828143    -0.01200
Br1415     Br  0.98020789  0.75346705  0.47126819    -0.01100
Br1416     Br  0.07010335  0.75272585  0.48011766    -0.01100
loop_ 
_geom_bond_atom_site_label_1 
_geom_bond_atom_site_label_2 
_geom_bond_distance 
_geom_bond_site_symmetry_2 
_ccdc_geom_bond_type 
C1            C2   1.418       .  A
C1            C6   1.415       .  A
C1         C1358   1.495       .  S
C2            C3   1.428       .  A
C2         C1408   1.519       .  S
C3            C4   1.440       .  A
C3         C1381   1.518       .  S
C4            C5   1.450       .  A
C4         C1388   1.519       .  S
C5            C6   1.492       .  A
C5         C1398   1.573       .  S
C6         C1371   1.545       .  S
C7            C8   1.470       .  A
C7           C12   1.468       .  A
C7         C1338   1.527       .  S
C8            C9   1.442       .  A
C8         C1401   1.571       .  S
C9           C10   1.446       .  A
C9         C1311   1.517       .  S
C10          C11   1.430       .  A
C10        C1321   1.517       .  S
C11          C12   1.440       .  A
C11        C1348   1.543       .  S
C12        C1328   1.551       .  S
C13          C14   1.434       .  A
C13          C18   1.436       .  A
C13        C1281   1.515       .  S
C14          C15   1.452       .  A
C14        C1351   1.547       .  S
C15          C16   1.462       .  A
C15        C1258   1.526       .  S
C16          C17   1.442       .  A
C16        C1271   1.534       .  S
C17          C18   1.417       .  A
C17        C1301   1.550       .  S
C18        C1291   1.486       .  S
C19          C20   1.472       .  A
C19          C24   1.491       .  A
C19        C1228   1.518       .  S
C20          C21   1.441       .  A
C20        C1218   1.579       .  S
C21          C22   1.405       .  A
C21        C1411   1.534       .  S
C22          C23   1.394       .  A
C22        C1248   1.414       .  S
C23          C24   1.480       .  A
C23        C1238   1.593       .  S
C24        C1298   1.594       .  S
C25          C26   1.485       .  A
C25          C30   1.469       .  A
C25        C1188   1.532       .  S
C26          C27   1.460       .  A
C26        C1211   1.585       .  S
C27          C28   1.450       .  A
C27        C1171   1.518       .  S
C28          C29   1.436       .  A
C28        C1161   1.559       .  S
C29          C30   1.424       .  A
C29        C1198   1.563       .  S
C30        C1178   1.545       .  S
C31          C32   1.454       .  A
C31          C36   1.429       .  A
C31        C1108   1.531       .  S
C32          C33   1.448       .  A
C32        C1118   1.514       .  S
C33          C34   1.444       .  A
C33        C1208   1.553       .  S
C34          C35   1.449       .  A
C34        C1138   1.515       .  S
C35          C36   1.427       .  A
C35        C1128   1.513       .  S
C36        C1148   1.535       .  S
C37          C38   1.453       .  A
C37          C42   1.434       .  A
C37        C1071   1.490       .  S
C38          C39   1.438       .  A
C38        C1058   1.547       .  S
C39          C40   1.440       .  A
C39        C1201   1.559       .  S
C40          C41   1.440       .  A
C40        C1078   1.544       .  S
C41          C42   1.425       .  A
C41        C1091   1.488       .  S
C42        C1098   1.546       .  S
C43          C44   1.424       .  A
C43          C48   1.440       .  A
C43        C1041   1.511       .  S
C44          C45   1.450       .  A
C44        C1151   1.557       .  S
C45          C46   1.476       .  A
C45        C1018   1.512       .  S
C46          C47   1.457       .  A
C46        C1031   1.577       .  S
C47          C48   1.460       .  A
C47        C1101   1.569       .  S
C48        C1051   1.533       .  S
C49          C50   1.431       .  A
C49          C54   1.441       .  A
C49         C981   1.513       .  S
C50          C51   1.461       .  A
C50        C1008   1.563       .  S
C51          C52   1.473       .  A
C51         C958   1.554       .  S
C52          C53   1.445       .  A
C52         C968   1.524       .  S
C53          C54   1.433       .  A
C53        C1001   1.559       .  S
C54         C988   1.507       .  S
C55          C56   1.436       .  A
C55          C60   1.454       .  A
C55         C921   1.561       .  S
C56          C57   1.438       .  A
C56         C998   1.528       .  S
C57          C58   1.458       .  A
C57         C938   1.531       .  S
C58          C59   1.453       .  A
C58         C928   1.511       .  S
C59          C60   1.444       .  A
C59         C951   1.574       .  S
C60         C908   1.496       .  S
C61          C62   1.448       .  A
C61          C66   1.457       .  A
C61         C858   1.542       .  S
C62          C63   1.451       .  A
C62         C948   1.562       .  S
C63          C64   1.468       .  A
C63         C878   1.507       .  S
C64          C65   1.454       .  A
C64         C888   1.564       .  S
C65          C66   1.462       .  A
C65         C901   1.574       .  S
C66         C871   1.532       .  S
C67          C68   1.430       .  A
C67          C72   1.448       .  A
C67         C818   1.480       .  S
C68          C69   1.437       .  A
C68        C1011   1.557       .  S
C69          C70   1.467       .  A
C69         C841   1.559       .  S
C70          C71   1.449       .  A
C70         C848   1.486       .  S
C71          C72   1.435       .  A
C71         C898   1.567       .  S
C72         C828   1.525       .  S
O73         Zr85   2.504       .  S
O73          C75   1.300       .  A
O74        Zr111   2.411       .  S
O74          C75   1.280       .  A
C75        C1368   1.517       .  S
O76         Zr88   2.406       .  S
O76          C78   1.272       .  A
O77        Zr112   2.482       .  S
O77          C78   1.291       .  A
C78         C290   1.484       .  S
O79         Zr88   2.399       .  S
O79          C81   1.280       .  A
O80        Zr111   2.468       .  S
O80          C81   1.291       .  A
C81         C633   1.477       .  S
O82         Zr85   2.508       .  S
O82          C84   1.296       .  A
O83        Zr112   2.401       .  S
O83          C84   1.268       .  A
C84        C1038   1.510       .  S
Zr85         O86   2.435       .  S
Zr85         O87   2.434       .  S
Zr85         O91   2.385       .  S
Zr85         O92   2.386       .  S
Zr85        O115   2.380       .  S
Zr85        O117   2.384       .  S
O86         H129   0.990       .  S
O87         H128   0.990       .  S
O87         H132   0.990       .  S
Zr88         O89   2.439       .  S
Zr88         O90   2.428       .  S
Zr88         O92   2.371       .  S
Zr88         O91   2.362       .  S
Zr88        O116   2.362       .  S
Zr88        O118   2.355       .  S
O89         H130   0.990       .  S
O89         H133   0.989       .  S
O90         H123   0.990       .  S
O91        Zr111   2.394       .  S
O92        Zr112   2.403       .  S
O92         H119   0.965       .  S
O93        Zr105   2.524       .  S
O93          C95   1.302       .  A
O94        Zr112   2.383   1_545  S
O94          C95   1.282       .  A
C95        C1131   1.510       .  S
O96        Zr108   2.411       .  S
O96          C98   1.280       .  A
O97        Zr111   2.481   1_545  S
O97          C98   1.291       .  A
C98         C143   1.488       .  S
O99        Zr108   2.439       .  S
O99         C101   1.280       .  A
O100       Zr112   2.465   1_545  S
O100        C101   1.284       .  A
C101        C470   1.491       .  S
O102       Zr105   2.506       .  S
O102        C104   1.298       .  A
O103       Zr111   2.397   1_545  S
O103        C104   1.275       .  A
C104       C1308   1.514       .  S
Zr105       O106   2.436       .  S
Zr105       O107   2.433       .  S
Zr105       O113   2.396       .  S
Zr105       O114   2.391       .  S
Zr105       O117   2.397   1_545  S
Zr105       O115   2.374   1_545  S
O106        H126   0.990       .  S
O106        H131   0.990       .  S
O107        H127   0.990       .  S
Zr108       O109   2.427       .  S
Zr108       O110   2.421       .  S
Zr108       O114   2.364       .  S
Zr108       O113   2.360       .  S
Zr108       O118   2.342   1_545  S
Zr108       O116   2.367   1_545  S
O109        H125   0.990       .  S
O110        H124   0.990       .  S
O110        H134   0.986       .  S
Zr111       O114   2.379   1_565  S
Zr111       O116   2.363       .  S
Zr111       O117   2.413       .  S
Zr112       O113   2.392   1_565  S
Zr112       O115   2.394       .  S
Zr112       O118   2.365       .  S
O113        H121   0.966       .  S
O116        H120   0.965       .  S
O117        H122   0.965       .  S
O135       Zr147   2.476       .  S
O135        C137   1.292       .  A
O136       Zr173   2.413       .  S
O136        C137   1.288       .  A
C137       C1318   1.497       .  S
O138       Zr150   2.421       .  S
O138        C140   1.276       .  A
O139       Zr174   2.501       .  S
O139        C140   1.292       .  A
C140        C473   1.502       .  S
O141       Zr150   2.399       .  S
O141        C143   1.282       .  A
O142       Zr173   2.482       .  S
O142        C143   1.293       .  A
O144       Zr147   2.433       .  S
O144        C146   1.284       .  A
O145       Zr174   2.437       .  S
O145        C146   1.296       .  A
C146        C978   1.475       .  S
Zr147       O148   2.435       .  S
Zr147       O149   2.436       .  S
Zr147       O153   2.382       .  S
Zr147       O154   2.398       .  S
Zr147       O177   2.384       .  S
Zr147       O179   2.370       .  S
O148        H191   0.990       .  S
O149        H190   0.990       .  S
O149        H194   0.990       .  S
Zr150       O151   2.431       .  S
Zr150       O152   2.421       .  S
Zr150       O154   2.353       .  S
Zr150       O153   2.364       .  S
Zr150       O178   2.368       .  S
Zr150       O180   2.355       .  S
O151        H192   0.989       .  S
O151        H195   0.988       .  S
O152        H185   0.990       .  S
O153       Zr173   2.390       .  S
O154       Zr174   2.408       .  S
O154        H181   0.965       .  S
O155       Zr167   2.470       .  S
O155        C157   1.294       .  A
O156       Zr174   2.422   1_655  S
O156        C157   1.288       .  A
C157        C838   1.478       .  S
O158       Zr170   2.385       .  S
O158        C160   1.279       .  A
O159       Zr173   2.484   1_655  S
O159        C160   1.294       .  A
C160        C701   1.485       .  S
O161       Zr170   2.400       .  S
O161        C163   1.281       .  A
O162       Zr174   2.526   1_655  S
O162        C163   1.304       .  A
C163        C591   1.503       .  S
O164       Zr167   2.482       .  S
O164        C166   1.296       .  A
O165       Zr173   2.417   1_655  S
O165        C166   1.288       .  A
C166       C1261   1.496       .  S
Zr167       O168   2.434       .  S
Zr167       O169   2.435       .  S
Zr167       O175   2.390       .  S
Zr167       O176   2.376       .  S
Zr167       O179   2.374   1_655  S
Zr167       O177   2.370   1_655  S
O168        H188   0.990       .  S
O168        H193   0.990       .  S
O169        H189   0.989       .  S
Zr170       O171   2.426       .  S
Zr170       O172   2.436       .  S
Zr170       O176   2.349       .  S
Zr170       O175   2.356       .  S
Zr170       O180   2.344   1_655  S
Zr170       O178   2.361   1_655  S
O171        H187   0.989       .  S
O172        H186   0.990       .  S
O172        H196   0.990       .  S
Zr173       O176   2.378   1_455  S
Zr173       O178   2.376       .  S
Zr173       O179   2.406       .  S
Zr174       O175   2.392   1_455  S
Zr174       O177   2.415       .  S
Zr174       O180   2.362       .  S
O175        H183   0.966       .  S
O178        H182   0.966       .  S
O179        H184   0.965       .  S
O197       Zr209   2.486       .  S
O197        C199   1.293       .  A
O198       Zr235   2.383       .  S
O198        C199   1.274       .  A
C199       C1378   1.506       .  S
O200       Zr212   2.410       .  S
O200        C202   1.274       .  A
O201       Zr236   2.457       .  S
O201        C202   1.282       .  A
C202        C270   1.477       .  S
O203       Zr212   2.385       .  S
O203        C205   1.279       .  A
O204       Zr235   2.459       .  S
O204        C205   1.283       .  A
C205        C385   1.482       .  S
O206       Zr209   2.488       .  S
O206        C208   1.296       .  A
O207       Zr236   2.378       .  S
O207        C208   1.280       .  A
C208        C911   1.483       .  S
Zr209       O210   2.434       .  S
Zr209       O211   2.434       .  S
Zr209       O215   2.378       .  S
Zr209       O216   2.380       .  S
Zr209       O239   2.381       .  S
Zr209       O241   2.390       .  S
O210        H253   0.990       .  S
O211        H252   0.990       .  S
O211        H256   0.990       .  S
Zr212       O213   2.437       .  S
Zr212       O214   2.421       .  S
Zr212       O216   2.345       .  S
Zr212       O215   2.356       .  S
Zr212       O240   2.370       .  S
Zr212       O242   2.355       .  S
O213        H254   0.989       .  S
O213        H257   0.989       .  S
O214        H247   0.990       .  S
O215       Zr235   2.385       .  S
O216       Zr236   2.388       .  S
O216        H243   0.965       .  S
O217       Zr229   2.536       .  S
O217        C219   1.306       .  A
O218       Zr236   2.376   1_655  S
O218        C219   1.279       .  A
C219        C861   1.511       .  S
O220       Zr232   2.418       .  S
O220        C222   1.276       .  A
O221       Zr235   2.449   1_655  S
O221        C222   1.283       .  A
C222        C538   1.470       .  S
O223       Zr232   2.425       .  S
O223        C225   1.278       .  A
O224       Zr236   2.430   1_655  S
O224        C225   1.280       .  A
C225        C760   1.468       .  S
O226       Zr229   2.540       .  S
O226        C228   1.307       .  A
O227       Zr235   2.366   1_655  S
O227        C228   1.274       .  A
C228       C1251   1.517       .  S
Zr229       O230   2.436       .  S
Zr229       O231   2.434       .  S
Zr229       O237   2.387       .  S
Zr229       O238   2.379       .  S
Zr229       O241   2.382   1_655  S
Zr229       O239   2.387   1_655  S
O230        H250   0.990       .  S
O230        H255   0.990       .  S
O231        H251   0.990       .  S
Zr232       O233   2.424       .  S
Zr232       O234   2.442       .  S
Zr232       O238   2.359       .  S
Zr232       O237   2.381       .  S
Zr232       O242   2.355   1_655  S
Zr232       O240   2.389   1_655  S
O233        H249   0.990       .  S
O234        H248   0.989       .  S
O234        H258   0.990       .  S
Zr235       O238   2.375   1_455  S
Zr235       O240   2.381       .  S
Zr235       O241   2.409       .  S
Zr236       O237   2.398   1_455  S
Zr236       O239   2.397       .  S
Zr236       O242   2.366       .  S
O237        H245   0.966       .  S
O240        H244   0.966       .  S
O241        H246   0.966       .  S
O259       Zr271   2.424       .  S
O259        C261   1.280       .  A
O260       Zr297   2.497   1_554  S
O260        C261   1.288       .  A
C261        C394   1.502       .  S
O262       Zr274   2.478       .  S
O262        C264   1.293       .  A
O263       Zr298   2.446       .  S
O263        C264   1.292       .  A
C264        C918   1.497       .  S
O265       Zr274   2.503       .  S
O265        C267   1.300       .  A
O266       Zr297   2.348   1_554  S
O266        C267   1.272       .  A
C267       C1088   1.477       .  S
O268       Zr271   2.420       .  S
O268        C270   1.284       .  A
O269       Zr298   2.452       .  S
O269        C270   1.289       .  A
Zr271       O272   2.424       .  S
Zr271       O273   2.439       .  S
Zr271       O277   2.369       .  S
Zr271       O278   2.383       .  S
Zr271       O301   2.346   1_554  S
Zr271       O303   2.369   1_554  S
O272        H315   0.989       .  S
O273        H314   0.990       .  S
O273        H318   0.990       .  S
Zr274       O275   2.434       .  S
Zr274       O276   2.432       .  S
Zr274       O278   2.388       .  S
Zr274       O277   2.376       .  S
Zr274       O302   2.368   1_554  S
Zr274       O304   2.388       .  S
O275        H316   0.990       .  S
O275        H319   0.990       .  S
O276        H309   0.990       .  S
O277       Zr297   2.380   1_554  S
O278       Zr298   2.394       .  S
O278        H305   0.966       .  S
O279       Zr291   2.422       .  S
O279        C281   1.276       .  A
O280       Zr298   2.467   1_556  S
O280        C281   1.284       .  A
C281        C642   1.485       .  S
O282       Zr294   2.474       .  S
O282        C284   1.290       .  A
O283       Zr297   2.410       .  S
O283        C284   1.286       .  A
C284       C1048   1.501       .  S
O285       Zr294   2.465       .  S
O285        C287   1.291       .  A
O286       Zr298   2.420   1_556  S
O286        C287   1.288       .  A
C287        C971   1.494       .  S
O288       Zr291   2.463       .  S
O288        C290   1.293       .  A
O289       Zr297   2.444       .  S
O289        C290   1.287       .  A
Zr291       O292   2.436       .  S
Zr291       O293   2.423       .  S
Zr291       O299   2.384       .  S
Zr291       O300   2.360       .  S
Zr291       O303   2.358       .  S
Zr291       O301   2.374       .  S
O292        H312   0.989       .  S
O292        H317   0.990       .  S
O293        H313   0.990       .  S
Zr294       O295   2.437       .  S
Zr294       O296   2.433       .  S
Zr294       O300   2.395       .  S
Zr294       O299   2.378       .  S
Zr294       O304   2.386   1_556  S
Zr294       O302   2.372       .  S
O295        H311   0.990       .  S
O296        H310   0.990       .  S
O296        H320   0.990       .  S
Zr297       O300   2.386       .  S
Zr297       O302   2.401       .  S
Zr297       O303   2.369       .  S
Zr298       O299   2.412   1_554  S
Zr298       O301   2.386   1_554  S
Zr298       O304   2.395       .  S
O299        H307   0.965       .  S
O302        H306   0.965       .  S
O303        H308   0.965       .  S
O321       Zr333   2.358       .  S
O321        C323   1.274       .  A
O322       Zr359   2.497       .  S
O322        C323   1.295       .  A
C323        C414   1.489       .  S
O324       Zr336   2.497       .  S
O324        C326   1.295       .  A
O325       Zr360   2.393       .  S
O325        C326   1.271       .  A
C326        C931   1.503       .  S
O327       Zr336   2.444       .  S
O327        C329   1.288       .  A
O328       Zr359   2.489       .  S
O328        C329   1.301       .  A
C329       C1331   1.496       .  S
O330       Zr333   2.411       .  S
O330        C332   1.283       .  A
O331       Zr360   2.455       .  S
O331        C332   1.292       .  A
C332        C450   1.469       .  S
Zr333       O334   2.429       .  S
Zr333       O335   2.436       .  S
Zr333       O339   2.363       .  S
Zr333       O340   2.349       .  S
Zr333       O363   2.338       .  S
Zr333       O365   2.351       .  S
O334        H377   0.990       .  S
O335        H376   0.990       .  S
O335        H380   0.990       .  S
Zr336       O337   2.435       .  S
Zr336       O338   2.433       .  S
Zr336       O340   2.366       .  S
Zr336       O339   2.398       .  S
Zr336       O364   2.384       .  S
Zr336       O366   2.365       .  S
O337        H378   0.990       .  S
O337        H381   0.990       .  S
O338        H371   0.990       .  S
O339       Zr359   2.395       .  S
O340       Zr360   2.383       .  S
O340        H367   0.966       .  S
O341       Zr353   2.415       .  S
O341        C343   1.275       .  A
O342       Zr360   2.456   1_655  S
O342        C343   1.283       .  A
C343        C580   1.476       .  S
O344       Zr356   2.507       .  S
O344        C346   1.298       .  A
O345       Zr359   2.399   1_655  S
O345        C346   1.271       .  A
C346       C1278   1.511       .  S
O347       Zr356   2.501       .  S
O347        C349   1.299       .  A
O348       Zr360   2.402   1_655  S
O348        C349   1.282       .  A
C349        C881   1.505       .  S
O350       Zr353   2.367       .  S
O350        C352   1.275       .  A
O351       Zr359   2.510   1_655  S
O351        C352   1.299       .  A
C352        C509   1.493       .  S
Zr353       O354   2.431       .  S
Zr353       O355   2.432       .  S
Zr353       O361   2.359       .  S
Zr353       O362   2.365       .  S
Zr353       O365   2.361   1_655  S
Zr353       O363   2.341   1_655  S
O354        H374   0.990       .  S
O354        H379   0.989       .  S
O355        H375   0.990       .  S
Zr356       O357   2.434       .  S
Zr356       O358   2.432       .  S
Zr356       O362   2.378       .  S
Zr356       O361   2.385       .  S
Zr356       O366   2.383   1_655  S
Zr356       O364   2.372   1_655  S
O357        H373   0.990       .  S
O358        H372   0.990       .  S
O358        H382   0.990       .  S
Zr359       O362   2.396   1_455  S
Zr359       O364   2.426       .  S
Zr359       O365   2.376       .  S
Zr360       O361   2.396   1_455  S
Zr360       O363   2.356       .  S
Zr360       O366   2.403       .  S
O361        H369   0.965       .  S
O364        H368   0.964       .  S
O365        H370   0.966       .  S
O383       Zr395   2.358       .  S
O383        C385   1.274       .  A
O384       Zr421   2.486       .  S
O384        C385   1.291       .  A
O386       Zr398   2.436       .  S
O386        C388   1.286       .  A
O387       Zr422   2.458       .  S
O387        C388   1.298       .  A
C388       C1081   1.479       .  S
O389       Zr398   2.466       .  S
O389        C391   1.290       .  A
O390       Zr421   2.431       .  S
O390        C391   1.292       .  A
C391       C1391   1.494       .  S
O392       Zr395   2.373       .  S
O392        C394   1.275       .  A
O393       Zr422   2.540       .  S
O393        C394   1.306       .  A
Zr395       O396   2.435       .  S
Zr395       O397   2.435       .  S
Zr395       O401   2.356       .  S
Zr395       O402   2.345       .  S
Zr395       O425   2.343       .  S
Zr395       O427   2.354       .  S
O396        H439   0.990       .  S
O397        H438   0.990       .  S
O397        H442   0.990       .  S
Zr398       O399   2.434       .  S
Zr398       O400   2.437       .  S
Zr398       O402   2.387       .  S
Zr398       O401   2.374       .  S
Zr398       O426   2.369       .  S
Zr398       O428   2.375       .  S
O399        H440   0.990       .  S
O399        H443   0.990       .  S
O400        H433   0.990       .  S
O401       Zr421   2.385       .  S
O402       Zr422   2.394       .  S
O402        H429   0.965       .  S
O403       Zr415   2.416       .  S
O403        C405   1.276       .  A
O404       Zr422   2.498   1_545  S
O404        C405   1.295       .  A
C405        C453   1.497       .  S
O406       Zr418   2.465       .  S
O406        C408   1.291       .  A
O407       Zr421   2.413   1_545  S
O407        C408   1.288       .  A
C408       C1341   1.488       .  S
O409       Zr418   2.443       .  S
O409        C411   1.287       .  A
O410       Zr422   2.447   1_545  S
O410        C411   1.295       .  A
C411       C1181   1.479       .  S
O412       Zr415   2.404       .  S
O412        C414   1.285       .  A
O413       Zr421   2.459   1_545  S
O413        C414   1.287       .  A
Zr415       O416   2.428       .  S
Zr415       O417   2.435       .  S
Zr415       O423   2.367       .  S
Zr415       O424   2.361       .  S
Zr415       O427   2.355   1_545  S
Zr415       O425   2.356   1_545  S
O416        H436   0.989       .  S
O416        H441   0.988       .  S
O417        H437   0.990       .  S
Zr418       O419   2.436       .  S
Zr418       O420   2.435       .  S
Zr418       O424   2.372       .  S
Zr418       O423   2.380       .  S
Zr418       O428   2.374   1_545  S
Zr418       O426   2.374   1_545  S
O419        H435   0.990       .  S
O420        H434   0.990       .  S
O420        H444   0.990       .  S
Zr421       O424   2.397   1_565  S
Zr421       O426   2.402       .  S
Zr421       O427   2.382       .  S
Zr422       O423   2.411   1_565  S
Zr422       O425   2.369       .  S
Zr422       O428   2.410       .  S
O423        H431   0.965       .  S
O426        H430   0.966       .  S
O427        H432   0.966       .  S
O445       Zr457   2.458       .  S
O445        C447   1.287       .  A
O446       Zr483   2.426   1_554  S
O446        C447   1.288       .  A
C447       C1191   1.494       .  S
O448       Zr460   2.437       .  S
O448        C450   1.280       .  A
O449       Zr484   2.437   1_554  S
O449        C450   1.280       .  A
O451       Zr460   2.455       .  S
O451        C453   1.291       .  A
O452       Zr483   2.465   1_554  S
O452        C453   1.291       .  A
O454       Zr457   2.461       .  S
O454        C456   1.289       .  A
O455       Zr484   2.458   1_554  S
O455        C456   1.295       .  A
C456        C941   1.504       .  S
Zr457       O458   2.435       .  S
Zr457       O459   2.435       .  S
Zr457       O463   2.396       .  S
Zr457       O464   2.377       .  S
Zr457       O487   2.382   1_554  S
Zr457       O489   2.374   1_554  S
O458        H501   0.990       .  S
O459        H500   0.990       .  S
O459        H504   0.990       .  S
Zr460       O461   2.430       .  S
Zr460       O462   2.423       .  S
Zr460       O464   2.373       .  S
Zr460       O463   2.364       .  S
Zr460       O488   2.367       .  S
Zr460       O490   2.371   1_554  S
O461        H502   0.989       .  S
O461        H505   0.989       .  S
O462        H495   0.990       .  S
O463       Zr483   2.392   1_554  S
O464       Zr484   2.402   1_554  S
O464        H491   0.965       .  S
O465       Zr477   2.511       .  S
O465        C467   1.297       .  A
O466       Zr484   2.382       .  S
O466        C467   1.266       .  A
C467        C991   1.502       .  S
O468       Zr480   2.403       .  S
O468        C470   1.279       .  A
O469       Zr483   2.495       .  S
O469        C470   1.297       .  A
O471       Zr480   2.438       .  S
O471        C473   1.288       .  A
O472       Zr484   2.493       .  S
O472        C473   1.297       .  A
O474       Zr477   2.517       .  S
O474        C476   1.300       .  A
O475       Zr483   2.385       .  S
O475        C476   1.275       .  A
C476       C1141   1.510       .  S
Zr477       O478   2.434       .  S
Zr477       O479   2.434       .  S
Zr477       O485   2.389       .  S
Zr477       O486   2.387       .  S
Zr477       O489   2.374       .  S
Zr477       O487   2.387       .  S
O478        H498   0.990       .  S
O478        H503   0.990       .  S
O479        H499   0.990       .  S
Zr480       O481   2.415       .  S
Zr480       O482   2.438       .  S
Zr480       O486   2.370       .  S
Zr480       O485   2.355       .  S
Zr480       O490   2.344       .  S
Zr480       O488   2.365   1_556  S
O481        H497   0.990       .  S
O482        H496   0.990       .  S
O482        H506   0.990       .  S
Zr483       O486   2.376       .  S
Zr483       O488   2.368   1_556  S
Zr483       O489   2.414       .  S
Zr484       O485   2.394       .  S
Zr484       O487   2.408       .  S
Zr484       O490   2.377       .  S
O485        H493   0.966       .  S
O488        H492   0.966       .  S
O489        H494   0.964   1_556  S
O507       Zr519   2.425       .  S
O507        C509   1.288       .  A
O508       Zr545   2.462   1_545  S
O508        C509   1.287       .  A
O510       Zr522   2.451       .  S
O510        C512   1.289       .  A
O511       Zr546   2.462   1_545  S
O511        C512   1.296       .  A
C512       C1158   1.488       .  S
O513       Zr522   2.458       .  S
O513        C515   1.287       .  A
O514       Zr545   2.407   1_545  S
O514        C515   1.271       .  A
C515       C1288   1.489       .  S
O516       Zr519   2.423       .  S
O516        C518   1.276       .  A
O517       Zr546   2.492   1_545  S
O517        C518   1.292       .  A
C518        C571   1.491       .  S
Zr519       O520   2.424       .  S
Zr519       O521   2.437       .  S
Zr519       O525   2.351       .  S
Zr519       O526   2.378       .  S
Zr519       O549   2.353   1_545  S
Zr519       O551   2.358   1_545  S
O520        H563   0.990       .  S
O521        H562   0.990       .  S
O521        H566   0.990       .  S
Zr522       O523   2.435       .  S
Zr522       O524   2.433       .  S
Zr522       O526   2.388       .  S
Zr522       O525   2.370       .  S
Zr522       O550   2.386   1_545  S
Zr522       O552   2.369   1_545  S
O523        H564   0.990       .  S
O523        H567   0.990       .  S
O524        H557   0.990       .  S
O525       Zr545   2.382   1_545  S
O526       Zr546   2.406   1_545  S
O526        H553   0.966       .  S
O527       Zr539   2.447       .  S
O527        C529   1.284       .  A
O528       Zr546   2.516       .  S
O528        C529   1.294       .  A
C529        C763   1.514       .  S
O530       Zr542   2.457       .  S
O530        C532   1.291       .  A
O531       Zr545   2.456       .  S
O531        C532   1.292       .  A
C532       C1241   1.498       .  S
O533       Zr542   2.420       .  S
O533        C535   1.282       .  A
O534       Zr546   2.432       .  S
O534        C535   1.293       .  A
C535       C1061   1.461       .  S
O536       Zr539   2.434       .  S
O536        C538   1.287       .  A
O537       Zr545   2.447       .  S
O537        C538   1.288       .  A
Zr539       O540   2.438       .  S
Zr539       O541   2.418       .  S
Zr539       O547   2.357       .  S
Zr539       O548   2.361       .  S
Zr539       O551   2.377       .  S
Zr539       O549   2.358       .  S
O540        H560   0.989       .  S
O540        H565   0.989       .  S
O541        H561   0.989       .  S
Zr542       O543   2.434       .  S
Zr542       O544   2.436       .  S
Zr542       O548   2.378       .  S
Zr542       O547   2.387       .  S
Zr542       O552   2.379       .  S
Zr542       O550   2.358       .  S
O543        H559   0.990       .  S
O544        H558   0.990       .  S
O544        H568   0.990       .  S
Zr545       O548   2.387       .  S
Zr545       O550   2.405       .  S
Zr545       O551   2.384       .  S
Zr546       O547   2.410       .  S
Zr546       O549   2.386       .  S
Zr546       O552   2.408       .  S
O547        H555   0.964       .  S
O550        H554   0.965       .  S
O551        H556   0.966       .  S
O569       Zr581   2.418       .  S
O569        C571   1.282       .  A
O570       Zr607   2.484   1_554  S
O570        C571   1.293       .  A
O572       Zr584   2.490       .  S
O572        C574   1.298       .  A
O573       Zr608   2.424       .  S
O573        C574   1.287       .  A
C574        C891   1.489       .  S
O575       Zr584   2.493       .  S
O575        C577   1.298       .  A
O576       Zr607   2.375   1_554  S
O576        C577   1.277       .  A
C577       C1168   1.486       .  S
O578       Zr581   2.412       .  S
O578        C580   1.284       .  A
O579       Zr608   2.462       .  S
O579        C580   1.291       .  A
Zr581       O582   2.432       .  S
Zr581       O583   2.426       .  S
Zr581       O587   2.356       .  S
Zr581       O588   2.359       .  S
Zr581       O611   2.360       .  S
Zr581       O613   2.371       .  S
O582        H625   0.990       .  S
O583        H624   0.990       .  S
O583        H628   0.988       .  S
Zr584       O585   2.435       .  S
Zr584       O586   2.435       .  S
Zr584       O588   2.387       .  S
Zr584       O587   2.387       .  S
Zr584       O612   2.369   1_554  S
Zr584       O614   2.366   1_554  S
O585        H626   0.990       .  S
O585        H629   0.990       .  S
O586        H619   0.990       .  S
O587       Zr607   2.379   1_554  S
O588       Zr608   2.386       .  S
O588        H615   0.966       .  S
O589       Zr601   2.423       .  S
O589        C591   1.278       .  A
O590       Zr608   2.492   1_556  S
O590        C591   1.286       .  A
O592       Zr604   2.511       .  S
O592        C594   1.300       .  A
O593       Zr607   2.392       .  S
O593        C594   1.283       .  A
C594       C1121   1.504       .  S
O595       Zr604   2.489       .  S
O595        C597   1.297       .  A
O596       Zr608   2.360   1_556  S
O596        C597   1.275       .  A
C597        C851   1.479       .  S
O598       Zr601   2.411       .  S
O598        C600   1.283       .  A
O599       Zr607   2.451       .  S
O599        C600   1.289       .  A
C600        C698   1.473       .  S
Zr601       O602   2.423       .  S
Zr601       O603   2.432       .  S
Zr601       O609   2.371       .  S
Zr601       O610   2.369       .  S
Zr601       O613   2.370   1_556  S
Zr601       O611   2.360   1_556  S
O602        H622   0.990       .  S
O602        H627   0.989       .  S
O603        H623   0.990       .  S
Zr604       O605   2.435       .  S
Zr604       O606   2.433       .  S
Zr604       O610   2.387       .  S
Zr604       O609   2.388       .  S
Zr604       O614   2.377       .  S
Zr604       O612   2.359       .  S
O605        H621   0.990       .  S
O606        H620   0.990       .  S
O606        H630   0.990       .  S
Zr607       O610   2.378       .  S
Zr607       O612   2.402       .  S
Zr607       O613   2.368   1_556  S
Zr608       O609   2.399   1_554  S
Zr608       O611   2.365       .  S
Zr608       O614   2.401   1_554  S
O609        H617   0.965       .  S
O612        H616   0.965       .  S
O613        H618   0.966       .  S
O631       Zr643   2.421       .  S
O631        C633   1.281       .  A
O632       Zr669   2.472       .  S
O632        C633   1.291       .  A
O634       Zr646   2.482       .  S
O634        C636   1.295       .  A
O635       Zr670   2.447       .  S
O635        C636   1.291       .  A
C636        C961   1.498       .  S
O637       Zr646   2.479       .  S
O637        C639   1.291       .  A
O638       Zr669   2.427       .  S
O638        C639   1.280       .  A
C639       C1361   1.502       .  S
O640       Zr643   2.428       .  S
O640        C642   1.286       .  A
O641       Zr670   2.468       .  S
O641        C642   1.293       .  A
Zr643       O644   2.424       .  S
Zr643       O645   2.437       .  S
Zr643       O649   2.358       .  S
Zr643       O650   2.377       .  S
Zr643       O673   2.344       .  S
Zr643       O675   2.373       .  S
O644        H687   0.990       .  S
O645        H686   0.990       .  S
O645        H690   0.990       .  S
Zr646       O647   2.435       .  S
Zr646       O648   2.435       .  S
Zr646       O650   2.383       .  S
Zr646       O649   2.377       .  S
Zr646       O674   2.398       .  S
Zr646       O676   2.373       .  S
O647        H688   0.990       .  S
O647        H691   0.990       .  S
O648        H681   0.990       .  S
O649       Zr669   2.389       .  S
O650       Zr670   2.395       .  S
O650        H677   0.966       .  S
O651       Zr663   2.432       .  S
O651        C653   1.279       .  A
O652       Zr670   2.484   1_655  S
O652        C653   1.287       .  A
C653        C783   1.493       .  S
O654       Zr666   2.447       .  S
O654        C656   1.288       .  A
O655       Zr669   2.500   1_655  S
O655        C656   1.300       .  A
C656       C1221   1.507       .  S
O657       Zr666   2.457       .  S
O657        C659   1.289       .  A
O658       Zr670   2.394   1_655  S
O658        C659   1.275       .  A
C659        C821   1.487       .  S
O660       Zr663   2.407       .  S
O660        C662   1.284       .  A
O661       Zr669   2.482   1_655  S
O661        C662   1.292       .  A
C662        C718   1.496       .  S
Zr663       O664   2.434       .  S
Zr663       O665   2.421       .  S
Zr663       O671   2.337       .  S
Zr663       O672   2.361       .  S
Zr663       O675   2.356   1_655  S
Zr663       O673   2.362   1_655  S
O664        H684   0.990       .  S
O664        H689   0.989       .  S
O665        H685   0.990       .  S
Zr666       O667   2.433       .  S
Zr666       O668   2.434   1_655  S
Zr666       O672   2.379       .  S
Zr666       O671   2.379       .  S
Zr666       O676   2.371   1_655  S
Zr666       O674   2.388   1_655  S
O667        H683   0.990       .  S
O668        H682   0.990       .  S
O668        H692   0.990   1_455  S
Zr669       O672   2.388   1_455  S
Zr669       O674   2.413       .  S
Zr669       O675   2.391       .  S
Zr670       O671   2.403   1_455  S
Zr670       O673   2.371       .  S
Zr670       O676   2.401       .  S
O671        H679   0.964       .  S
O674        H678   0.966       .  S
O675        H680   0.965       .  S
O693       Zr705   2.446       .  S
O693        C695   1.287       .  A
O694       Zr731   2.462   1_545  S
O694        C695   1.296       .  A
C695       C1268   1.490       .  S
O696       Zr708   2.427       .  S
O696        C698   1.280       .  A
O697       Zr732   2.444   1_545  S
O697        C698   1.284       .  A
O699       Zr708   2.406       .  S
O699        C701   1.276       .  A
O700       Zr731   2.489   1_545  S
O700        C701   1.293       .  A
O702       Zr705   2.457       .  S
O702        C704   1.288       .  A
O703       Zr732   2.424   1_545  S
O703        C704   1.290       .  A
C704       C1111   1.480       .  S
Zr705       O706   2.435       .  S
Zr705       O707   2.437       .  S
Zr705       O711   2.391       .  S
Zr705       O712   2.382       .  S
Zr705       O735   2.374   1_545  S
Zr705       O737   2.379   1_545  S
O706        H749   0.990       .  S
O707        H748   0.990       .  S
O707        H752   0.990       .  S
Zr708       O709   2.431       .  S
Zr708       O710   2.429       .  S
Zr708       O712   2.370       .  S
Zr708       O711   2.367       .  S
Zr708       O736   2.385   1_545  S
Zr708       O738   2.354   1_545  S
O709        H750   0.987       .  S
O709        H753   0.990       .  S
O710        H743   0.990       .  S
O711       Zr731   2.391   1_545  S
O712       Zr732   2.392   1_545  S
O712        H739   0.966       .  S
O713       Zr725   2.503       .  S
O713        C715   1.300       .  A
O714       Zr732   2.393       .  S
O714        C715   1.284       .  A
C715       C1021   1.501       .  S
O716       Zr728   2.372       .  S
O716        C718   1.276       .  A
O717       Zr731   2.502       .  S
O717        C718   1.297       .  A
O719       Zr728   2.415       .  S
O719        C721   1.274       .  A
O720       Zr732   2.469       .  S
O720        C721   1.284       .  A
C721        C780   1.490       .  S
O722       Zr725   2.485       .  S
O722        C724   1.296       .  A
O723       Zr731   2.396       .  S
O723        C724   1.285       .  A
C724       C1231   1.492       .  S
Zr725       O726   2.435       .  S
Zr725       O727   2.435       .  S
Zr725       O733   2.374       .  S
Zr725       O734   2.380       .  S
Zr725       O737   2.381       .  S
Zr725       O735   2.377       .  S
O726        H746   0.990       .  S
O726        H751   0.990       .  S
O727        H747   0.990       .  S
Zr728       O729   2.422       .  S
Zr728       O730   2.433       .  S
Zr728       O734   2.358       .  S
Zr728       O733   2.346       .  S
Zr728       O738   2.348       .  S
Zr728       O736   2.353       .  S
O729        H745   0.990       .  S
O730        H744   0.990       .  S
O730        H754   0.988       .  S
Zr731       O734   2.397       .  S
Zr731       O736   2.378       .  S
Zr731       O737   2.416       .  S
Zr732       O733   2.393       .  S
Zr732       O735   2.395       .  S
Zr732       O738   2.369       .  S
O733        H741   0.965       .  S
O736        H740   0.965       .  S
O737        H742   0.965       .  S
O755       Zr767   2.465       .  S
O755        C757   1.286       .  A
O756       Zr793   2.413   1_554  S
O756        C757   1.275       .  A
C757       C1068   1.498       .  S
O758       Zr770   2.417       .  S
O758        C760   1.284       .  A
O759       Zr794   2.447       .  S
O759        C760   1.290       .  A
O761       Zr770   2.390       .  S
O761        C763   1.279       .  A
O762       Zr793   2.555   1_554  S
O762        C763   1.308       .  A
O764       Zr767   2.467       .  S
O764        C766   1.293       .  A
O765       Zr794   2.444       .  S
O765        C766   1.294       .  A
C766        C868   1.494       .  S
Zr767       O768   2.434       .  S
Zr767       O769   2.434       .  S
Zr767       O773   2.393       .  S
Zr767       O774   2.366       .  S
Zr767       O797   2.394   1_554  S
Zr767       O799   2.358   1_554  S
O768        H811   0.990       .  S
O769        H810   0.989       .  S
O769        H814   0.990       .  S
Zr770       O771   2.427       .  S
Zr770       O772   2.433       .  S
Zr770       O774   2.370       .  S
Zr770       O773   2.393       .  S
Zr770       O798   2.379   1_554  S
Zr770       O800   2.360   1_554  S
O771        H812   0.990       .  S
O771        H815   0.989       .  S
O772        H805   0.990       .  S
O773       Zr793   2.401   1_554  S
O774       Zr794   2.399       .  S
O774        H801   0.966       .  S
O775       Zr787   2.503       .  S
O775        C777   1.297       .  A
O776       Zr794   2.392   1_556  S
O776        C777   1.281       .  A
C777        C831   1.518       .  S
O778       Zr790   2.413       .  S
O778        C780   1.284       .  A
O779       Zr793   2.490       .  S
O779        C780   1.296       .  A
O781       Zr790   2.419       .  S
O781        C783   1.285       .  A
O782       Zr794   2.496   1_556  S
O782        C783   1.298       .  A
O784       Zr787   2.436       .  S
O784        C786   1.284       .  A
O785       Zr793   2.489       .  S
O785        C786   1.299       .  A
C786       C1028   1.498       .  S
Zr787       O788   2.437       .  S
Zr787       O789   2.433       .  S
Zr787       O795   2.344       .  S
Zr787       O796   2.417       .  S
Zr787       O799   2.369       .  S
Zr787       O797   2.374       .  S
O788        H808   0.990       .  S
O788        H813   0.990       .  S
O789        H809   0.990       .  S
Zr790       O791   2.416       .  S
Zr790       O792   2.435       .  S
Zr790       O796   2.398       .  S
Zr790       O795   2.377       .  S
Zr790       O800   2.366       .  S
Zr790       O798   2.375       .  S
O791        H807   0.989       .  S
O792        H806   0.990       .  S
O792        H816   0.990       .  S
Zr793       O796   2.412       .  S
Zr793       O798   2.364       .  S
Zr793       O799   2.353       .  S
Zr794       O795   2.396   1_554  S
Zr794       O797   2.423   1_554  S
Zr794       O800   2.378   1_554  S
O795        H803   0.966       .  S
O798        H802   0.966       .  S
O799        H804   0.965       .  S
C817        C818   1.393       .  A
C817        C822   1.390       .  A
C817       Br824   1.916   1_655  S
C818        C819   1.410       .  A
C819        C820   1.411       .  A
C819       Br826   1.926       .  S
C820        C821   1.417       .  A
C820       Br825   1.927       .  S
C821        C822   1.421       .  A
C822       Br823   1.934   1_655  S
C827        C828   1.415       .  A
C827        C832   1.407       .  A
C827       Br834   1.918       .  S
C828        C829   1.423       .  A
C829        C830   1.424       .  A
C829       Br836   1.930       .  S
C830        C831   1.419       .  A
C830       Br835   1.929       .  S
C831        C832   1.420       .  A
C832       Br833   1.940       .  S
C837        C838   1.409       .  A
C837        C842   1.418       .  A
C837       Br844   1.924       .  S
C838        C839   1.403       .  A
C839        C840   1.409       .  A
C839       Br846   1.928       .  S
C840        C841   1.414       .  A
C840       Br845   1.917       .  S
C841        C842   1.419       .  A
C842       Br843   1.905       .  S
C847        C848   1.416       .  A
C847        C852   1.414       .  A
C847       Br854   1.923       .  S
C848        C849   1.402       .  A
C849        C850   1.387       .  A
C849       Br856   1.914       .  S
C850        C851   1.415       .  A
C850       Br855   1.929       .  S
C851        C852   1.410       .  A
C852       Br853   1.926       .  S
C857        C858   1.431       .  A
C857        C862   1.431       .  A
C857       Br864   1.913       .  S
C858        C859   1.417       .  A
C859        C860   1.400       .  A
C859       Br866   1.910       .  S
C860        C861   1.410       .  A
C860       Br865   1.928       .  S
C861        C862   1.411       .  A
C862       Br863   1.926       .  S
C867        C868   1.389       .  A
C867        C872   1.391       .  A
C867       Br874   1.913   1_554  S
C868        C869   1.410       .  A
C869        C870   1.430       .  A
C869       Br876   1.920       .  S
C870        C871   1.429       .  A
C870       Br875   1.916       .  S
C871        C872   1.407       .  A
C872       Br873   1.869       .  S
C877        C878   1.423       .  A
C877        C882   1.423       .  A
C877       Br884   1.936       .  S
C878        C879   1.405       .  A
C879        C880   1.398       .  A
C879       Br886   1.910       .  S
C880        C881   1.416       .  A
C880       Br885   1.936       .  S
C881        C882   1.417       .  A
C882       Br883   1.925       .  S
C887        C888   1.417       .  A
C887        C892   1.413       .  A
C887       Br894   1.914       .  S
C888        C889   1.412       .  A
C889        C890   1.420       .  A
C889       Br896   1.908       .  S
C890        C891   1.413       .  A
C890       Br895   1.920       .  S
C891        C892   1.406       .  A
C892       Br893   1.929       .  S
C897        C898   1.414       .  A
C897        C902   1.408   1_556  A
C897       Br904   1.910       .  S
C898        C899   1.442       .  A
C899        C900   1.454   1_556  A
C899       Br906   1.910       .  S
C900        C901   1.438       .  A
C900       Br905   1.932       .  S
C901        C902   1.416       .  A
C902       Br903   1.913       .  S
C907        C908   1.407       .  A
C907        C912   1.390       .  A
C907       Br914   1.927       .  S
C908        C909   1.424       .  A
C909        C910   1.414       .  A
C909       Br916   1.921       .  S
C910        C911   1.408       .  A
C910       Br915   1.930       .  S
C911        C912   1.411       .  A
C912       Br913   1.917       .  S
C917        C918   1.386       .  A
C917        C922   1.399       .  A
C917       Br924   1.918       .  S
C918        C919   1.407       .  A
C919        C920   1.428       .  A
C919       Br926   1.919       .  S
C920        C921   1.433       .  A
C920       Br925   1.916       .  S
C921        C922   1.437       .  A
C922       Br923   1.898       .  S
C927        C928   1.420       .  A
C927        C932   1.422       .  A
C927       Br934   1.924       .  S
C928        C929   1.400       .  A
C929        C930   1.399       .  A
C929       Br936   1.908       .  S
C930        C931   1.423       .  A
C930       Br935   1.937       .  S
C931        C932   1.416       .  A
C932       Br933   1.929       .  S
C937        C938   1.406       .  A
C937        C942   1.391       .  A
C937       Br944   1.880       .  S
C938        C939   1.429       .  A
C939        C940   1.436       .  A
C939       Br946   1.917       .  S
C940        C941   1.421       .  A
C940       Br945   1.921       .  S
C941        C942   1.385       .  A
C942       Br943   1.905       .  S
C947        C948   1.411   1_455  A
C947        C952   1.409       .  A
C947       Br954   1.909   1_455  S
C948        C949   1.445       .  A
C949        C950   1.450   1_655  A
C949       Br956   1.905       .  S
C950        C951   1.435       .  A
C950       Br955   1.923       .  S
C951        C952   1.418       .  A
C952       Br953   1.924       .  S
C957        C958   1.405       .  A
C957        C962   1.415       .  A
C957       Br964   1.917       .  S
C958        C959   1.417       .  A
C959        C960   1.420       .  A
C959       Br966   1.912       .  S
C960        C961   1.413       .  A
C960       Br965   1.923       .  S
C961        C962   1.416       .  A
C962       Br963   1.918       .  S
C967        C968   1.411       .  A
C967        C972   1.397       .  A
C967       Br974   1.889       .  S
C968        C969   1.425       .  A
C969        C970   1.421       .  A
C969       Br976   1.922       .  S
C970        C971   1.414       .  A
C970       Br975   1.930       .  S
C971        C972   1.403       .  A
C972       Br973   1.931       .  S
C977        C978   1.409       .  A
C977        C982   1.424       .  A
C977       Br984   1.920       .  S
C978        C979   1.384       .  A
C979        C980   1.377       .  A
C979       Br986   1.919       .  S
C980        C981   1.418       .  A
C980       Br985   1.905       .  S
C981        C982   1.428       .  A
C982       Br983   1.930       .  S
C987        C988   1.418       .  A
C987        C992   1.421       .  A
C987       Br994   1.925       .  S
C988        C989   1.399       .  A
C989        C990   1.401       .  A
C989       Br996   1.904       .  S
C990        C991   1.427       .  A
C990       Br995   1.949       .  S
C991        C992   1.415       .  A
C992       Br993   1.927       .  S
C997        C998   1.414       .  A
C997       C1002   1.442   1_554  A
C997      Br1004   1.925       .  S
C998        C999   1.405       .  A
C999       C1000   1.411   1_554  A
C999      Br1006   1.909       .  S
C1000      C1001   1.423       .  A
C1000     Br1005   1.899       .  S
C1001      C1002   1.439       .  A
C1002     Br1003   1.916       .  S
C1007      C1008   1.425       .  A
C1007      C1012   1.400   1_455  A
C1007     Br1014   1.879       .  S
C1008      C1009   1.427       .  A
C1009      C1010   1.431       .  A
C1009     Br1016   1.916       .  S
C1010      C1011   1.439   1_455  A
C1010     Br1015   1.916   1_455  S
C1011      C1012   1.407       .  A
C1012     Br1013   1.908       .  S
C1017      C1018   1.422       .  A
C1017      C1022   1.422       .  A
C1017     Br1024   1.924       .  S
C1018      C1019   1.408       .  A
C1019      C1020   1.397       .  A
C1019     Br1026   1.902       .  S
C1020      C1021   1.412       .  A
C1020     Br1025   1.928       .  S
C1021      C1022   1.415       .  A
C1022     Br1023   1.931       .  S
C1027      C1028   1.419       .  A
C1027      C1032   1.437       .  A
C1027     Br1034   1.926       .  S
C1028      C1029   1.400       .  A
C1029      C1030   1.411       .  A
C1029     Br1036   1.927       .  S
C1030      C1031   1.413       .  A
C1030     Br1035   1.915       .  S
C1031      C1032   1.435       .  A
C1032     Br1033   1.919       .  S
C1037      C1038   1.430       .  A
C1037      C1042   1.404       .  A
C1037     Br1044   1.950       .  S
C1038      C1039   1.418       .  A
C1039      C1040   1.421       .  A
C1039     Br1046   1.929       .  S
C1040      C1041   1.417       .  A
C1040     Br1045   1.927       .  S
C1041      C1042   1.404       .  A
C1042     Br1043   1.914       .  S
C1047      C1048   1.417       .  A
C1047      C1052   1.432       .  A
C1047     Br1054   1.921       .  S
C1048      C1049   1.397       .  A
C1049      C1050   1.384       .  A
C1049     Br1056   1.922       .  S
C1050      C1051   1.417       .  A
C1050     Br1055   1.913       .  S
C1051      C1052   1.429       .  A
C1052     Br1053   1.915       .  S
C1057      C1058   1.418       .  A
C1057      C1062   1.382       .  A
C1057     Br1064   1.917       .  S
C1058      C1059   1.441       .  A
C1059      C1060   1.419       .  A
C1059     Br1066   1.919       .  S
C1060      C1061   1.400       .  A
C1060     Br1065   1.929       .  S
C1061      C1062   1.387       .  A
C1062     Br1063   1.932       .  S
C1067      C1068   1.421       .  A
C1067      C1072   1.418       .  A
C1067     Br1074   1.927       .  S
C1068      C1069   1.418       .  A
C1069      C1070   1.399       .  A
C1069     Br1076   1.943       .  S
C1070      C1071   1.402       .  A
C1070     Br1075   1.920       .  S
C1071      C1072   1.413       .  A
C1072     Br1073   1.930       .  S
C1077      C1078   1.407       .  A
C1077      C1082   1.394       .  A
C1077     Br1084   1.922       .  S
C1078      C1079   1.410       .  A
C1079      C1080   1.430       .  A
C1079     Br1086   1.919       .  S
C1080      C1081   1.427       .  A
C1080     Br1085   1.923       .  S
C1081      C1082   1.403       .  A
C1082     Br1083   1.927       .  S
C1087      C1088   1.419       .  A
C1087      C1092   1.387       .  A
C1087     Br1094   1.932       .  S
C1088      C1089   1.411       .  A
C1089      C1090   1.412       .  A
C1089     Br1096   1.927       .  S
C1090      C1091   1.416       .  A
C1090     Br1095   1.931       .  S
C1091      C1092   1.405       .  A
C1092     Br1093   1.927       .  S
C1097      C1098   1.417       .  A
C1097      C1102   1.425   1_554  A
C1097     Br1104   1.916       .  S
C1098      C1099   1.411       .  A
C1099      C1100   1.410   1_554  A
C1099     Br1106   1.895       .  S
C1100      C1101   1.407       .  A
C1100     Br1105   1.925       .  S
C1101      C1102   1.452       .  A
C1102     Br1103   1.884       .  S
C1107      C1108   1.428       .  A
C1107      C1112   1.389       .  A
C1107     Br1114   1.908   1_545  S
C1108      C1109   1.431       .  A
C1109      C1110   1.420       .  A
C1109     Br1116   1.917       .  S
C1110      C1111   1.401       .  A
C1110     Br1115   1.919       .  S
C1111      C1112   1.384       .  A
C1112     Br1113   1.908   1_545  S
C1117      C1118   1.407       .  A
C1117      C1122   1.393       .  A
C1117     Br1124   1.923       .  S
C1118      C1119   1.427       .  A
C1119      C1120   1.426       .  A
C1119     Br1126   1.923       .  S
C1120      C1121   1.415       .  A
C1120     Br1125   1.925       .  S
C1121      C1122   1.409       .  A
C1122     Br1123   1.911       .  S
C1127      C1128   1.426       .  A
C1127      C1132   1.433       .  A
C1127     Br1134   1.926       .  S
C1128      C1129   1.395       .  A
C1129      C1130   1.385       .  A
C1129     Br1136   1.895       .  S
C1130      C1131   1.408       .  A
C1130     Br1135   1.919       .  S
C1131      C1132   1.419       .  A
C1132     Br1133   1.921       .  S
C1137      C1138   1.412       .  A
C1137      C1142   1.406       .  A
C1137     Br1144   1.934       .  S
C1138      C1139   1.420       .  A
C1139      C1140   1.420       .  A
C1139     Br1146   1.926       .  S
C1140      C1141   1.415       .  A
C1140     Br1145   1.930       .  S
C1141      C1142   1.430       .  A
C1142     Br1143   1.939       .  S
C1147      C1148   1.413   1_565  A
C1147      C1152   1.419       .  A
C1147     Br1154   1.916   1_565  S
C1148      C1149   1.418   1_545  A
C1149      C1150   1.436       .  A
C1149     Br1156   1.920   1_565  S
C1150      C1151   1.432       .  A
C1150     Br1155   1.916       .  S
C1151      C1152   1.418       .  A
C1152     Br1153   1.903       .  S
C1157      C1158   1.402       .  A
C1157      C1162   1.410       .  A
C1157     Br1164   1.924       .  S
C1158      C1159   1.414       .  A
C1159      C1160   1.427       .  A
C1159     Br1166   1.923       .  S
C1160      C1161   1.414       .  A
C1160     Br1165   1.906       .  S
C1161      C1162   1.413       .  A
C1162     Br1163   1.915       .  S
C1167      C1168   1.414       .  A
C1167      C1172   1.399       .  A
C1167     Br1174   1.934       .  S
C1168      C1169   1.407       .  A
C1169      C1170   1.416       .  A
C1169     Br1176   1.932       .  S
C1170      C1171   1.424       .  A
C1170     Br1175   1.913       .  S
C1171      C1172   1.422       .  A
C1172     Br1173   1.926       .  S
C1177      C1178   1.428       .  A
C1177      C1182   1.411       .  A
C1177     Br1184   1.926       .  S
C1178      C1179   1.414       .  A
C1179      C1180   1.413       .  A
C1179     Br1186   1.912       .  S
C1180      C1181   1.405       .  A
C1180     Br1185   1.922       .  S
C1181      C1182   1.399       .  A
C1182     Br1183   1.921   1_545  S
C1187      C1188   1.431       .  A
C1187      C1192   1.401       .  A
C1187     Br1194   1.900       .  S
C1188      C1189   1.427       .  A
C1189      C1190   1.425       .  A
C1189     Br1196   1.933       .  S
C1190      C1191   1.408       .  A
C1190     Br1195   1.924       .  S
C1191      C1192   1.393       .  A
C1192     Br1193   1.936       .  S
C1197      C1198   1.432       .  A
C1197      C1202   1.423   1_545  A
C1197     Br1204   1.922       .  S
C1198      C1199   1.432   1_545  A
C1199      C1200   1.396       .  A
C1199     Br1206   1.884       .  S
C1200      C1201   1.409       .  A
C1200     Br1205   1.893       .  S
C1201      C1202   1.433       .  A
C1202     Br1203   1.891       .  S
C1207      C1208   1.420       .  A
C1207      C1212   1.450   1_556  A
C1207     Br1214   1.931       .  S
C1208      C1209   1.395       .  A
C1209      C1210   1.396   1_556  A
C1209     Br1216   1.907       .  S
C1210      C1211   1.427       .  A
C1210     Br1215   1.880       .  S
C1211      C1212   1.457       .  A
C1212     Br1213   1.900       .  S
C1217      C1218   1.413       .  A
C1217      C1222   1.429       .  A
C1217     Br1224   1.915       .  S
C1218      C1219   1.423       .  A
C1219      C1220   1.426       .  A
C1219     Br1226   1.915       .  S
C1220      C1221   1.414       .  A
C1220     Br1225   1.926       .  S
C1221      C1222   1.412       .  A
C1222     Br1223   1.932   1_655  S
C1227      C1228   1.429       .  A
C1227      C1232   1.398       .  A
C1227     Br1234   1.948       .  S
C1228      C1229   1.423       .  A
C1229      C1230   1.419       .  A
C1229     Br1236   1.918       .  S
C1230      C1231   1.409       .  A
C1230     Br1235   1.932       .  S
C1231      C1232   1.405       .  A
C1232     Br1233   1.922       .  S
C1237      C1238   1.539       .  A
C1237      C1242   1.484       .  A
C1237     Br1244   3.706       .  S
C1238      C1239   1.399       .  A
C1239      C1240   1.401       .  A
C1239     Br1246   1.921       .  S
C1240      C1241   1.396       .  A
C1240     Br1245   1.926       .  S
C1241      C1242   1.409       .  A
C1242     Br1243   1.962       .  S
C1247      C1248   1.638       .  A
C1247      C1252   1.615       .  A
C1247     Br1254   1.911       .  S
C1248      C1249   1.627       .  A
C1249      C1250   1.605       .  A
C1249     Br1256   1.924       .  S
C1250      C1251   1.616       .  A
C1250     Br1255   1.921       .  S
C1251      C1252   1.631       .  A
C1252     Br1253   1.922       .  S
C1257      C1258   1.423       .  A
C1257      C1262   1.403       .  A
C1257     Br1264   1.936       .  S
C1258      C1259   1.425       .  A
C1259      C1260   1.417       .  A
C1259     Br1266   1.917       .  S
C1260      C1261   1.406       .  A
C1260     Br1265   1.928       .  S
C1261      C1262   1.405       .  A
C1262     Br1263   1.908       .  S
C1267      C1268   1.410       .  A
C1267      C1272   1.403       .  A
C1267     Br1274   1.902   1_545  S
C1268      C1269   1.416       .  A
C1269      C1270   1.419       .  A
C1269     Br1276   1.923       .  S
C1270      C1271   1.413       .  A
C1270     Br1275   1.916       .  S
C1271      C1272   1.402       .  A
C1272     Br1273   1.912       .  S
C1277      C1278   1.430       .  A
C1277      C1282   1.407       .  A
C1277     Br1284   1.940   1_655  S
C1278      C1279   1.416       .  A
C1279      C1280   1.421       .  A
C1279     Br1286   1.932       .  S
C1280      C1281   1.421       .  A
C1280     Br1285   1.923       .  S
C1281      C1282   1.402       .  A
C1282     Br1283   1.917   1_655  S
C1287      C1288   1.426       .  A
C1287      C1292   1.398       .  A
C1287     Br1294   1.943   1_545  S
C1288      C1289   1.416       .  A
C1289      C1290   1.408       .  A
C1289     Br1296   1.931       .  S
C1290      C1291   1.411       .  A
C1290     Br1295   1.933       .  S
C1291      C1292   1.402       .  A
C1292     Br1293   1.916       .  S
C1297      C1298   1.428       .  A
C1297      C1302   1.402       .  A
C1297     Br1304   1.896       .  S
C1298      C1299   1.435       .  A
C1299      C1300   1.444       .  A
C1299     Br1306   1.907       .  S
C1300      C1301   1.426   1_565  A
C1300     Br1305   1.928   1_565  S
C1301      C1302   1.400   1_545  A
C1302     Br1303   1.918   1_565  S
C1307      C1308   1.416       .  A
C1307      C1312   1.422       .  A
C1307     Br1314   1.929       .  S
C1308      C1309   1.428       .  A
C1309      C1310   1.404       .  A
C1309     Br1316   1.934   1_545  S
C1310      C1311   1.410       .  A
C1310     Br1315   1.928   1_545  S
C1311      C1312   1.421       .  A
C1312     Br1313   1.924       .  S
C1317      C1318   1.396       .  A
C1317      C1322   1.386       .  A
C1317     Br1324   1.923       .  S
C1318      C1319   1.415       .  A
C1319      C1320   1.427       .  A
C1319     Br1326   1.922       .  S
C1320      C1321   1.427       .  A
C1320     Br1325   1.934       .  S
C1321      C1322   1.413       .  A
C1322     Br1323   1.899       .  S
C1327      C1328   1.415       .  A
C1327      C1332   1.423       .  A
C1327     Br1334   1.915       .  S
C1328      C1329   1.409       .  A
C1329      C1330   1.412       .  A
C1329     Br1336   1.920       .  S
C1330      C1331   1.414       .  A
C1330     Br1335   1.919       .  S
C1331      C1332   1.421       .  A
C1332     Br1333   1.924       .  S
C1337      C1338   1.431       .  A
C1337      C1342   1.403       .  A
C1337     Br1344   1.930       .  S
C1338      C1339   1.427       .  A
C1339      C1340   1.419       .  A
C1339     Br1346   1.921       .  S
C1340      C1341   1.407       .  A
C1340     Br1345   1.928       .  S
C1341      C1342   1.397       .  A
C1342     Br1343   1.922       .  S
C1347      C1348   1.411       .  A
C1347      C1352   1.397       .  A
C1347     Br1354   1.898       .  S
C1348      C1349   1.427       .  A
C1349      C1350   1.428   1_455  A
C1349     Br1356   1.915       .  S
C1350      C1351   1.426       .  A
C1350     Br1355   1.912       .  S
C1351      C1352   1.408   1_655  A
C1352     Br1353   1.885   1_455  S
C1357      C1358   1.661       .  A
C1357      C1362   1.654       .  A
C1357     Br1364   1.912       .  S
C1358      C1359   1.605       .  A
C1359      C1360   1.564       .  A
C1359     Br1366   1.930       .  S
C1360      C1361   1.618       .  A
C1360     Br1365   1.956       .  S
C1361      C1362   1.640       .  A
C1362     Br1363   1.912       .  S
C1367      C1368   1.433       .  A
C1367      C1372   1.471       .  A
C1367     Br1374   1.931       .  S
C1368      C1369   1.404       .  A
C1369      C1370   1.407       .  A
C1369     Br1376   1.929       .  S
C1370      C1371   1.416       .  A
C1370     Br1375   1.926       .  S
C1371      C1372   1.504       .  A
C1372     Br1373   3.709       .  S
C1377      C1378   1.418       .  A
C1377      C1382   1.389       .  A
C1377     Br1384   1.946       .  S
C1378      C1379   1.421       .  A
C1379      C1380   1.428       .  A
C1379     Br1386   1.928       .  S
C1380      C1381   1.422       .  A
C1380     Br1385   1.926       .  S
C1381      C1382   1.399       .  A
C1382     Br1383   1.891       .  S
C1387      C1388   1.426       .  A
C1387      C1392   1.429       .  A
C1387     Br1394   1.915       .  S
C1388      C1389   1.408       .  A
C1389      C1390   1.375       .  A
C1389     Br1396   1.899       .  S
C1390      C1391   1.392       .  A
C1390     Br1395   1.894       .  S
C1391      C1392   1.413       .  A
C1392     Br1393   1.920       .  S
C1397      C1398   1.424       .  A
C1397      C1402   1.416       .  A
C1397     Br1404   1.889       .  S
C1398      C1399   1.430       .  A
C1399      C1400   1.449       .  A
C1399     Br1406   1.910       .  S
C1400      C1401   1.439   1_565  A
C1400     Br1405   1.920   1_565  S
C1401      C1402   1.409   1_545  A
C1402     Br1403   1.897   1_565  S
C1407      C1408   1.433       .  A
C1407      C1412   1.409       .  A
C1407     Br1414   1.964       .  S
C1408      C1409   1.417       .  A
C1409      C1410   1.426       .  A
C1409     Br1416   1.922       .  S
C1410      C1411   1.426   1_455  A
C1410     Br1415   1.918   1_455  S
C1411      C1412   1.417   1_655  A
C1412     Br1413   1.902   1_455  S
