geometry optimzed in LAMMPS
_audit_creation_date              2020-12-01 
_audit_creation_method            'lammps2cif' 
_symmetry_space_group_name_H-M    'P1' 
_symmetry_Int_Tables_number       1 
_symmetry_cell_setting            triclinic 
loop_ 
_symmetry_equiv_pos_as_xyz 
  x,y,z 
_cell_length_a                    46.09461581 
_cell_length_b                    46.16064257720177 
_cell_length_c                    46.2482441354085 
_cell_angle_alpha                 89.65967743638038 
_cell_angle_beta                  89.85889665020298 
_cell_angle_gamma                 89.97412483558064 
loop_ 
_atom_site_label 
_atom_site_type_symbol 
_atom_site_fract_x 
_atom_site_fract_y 
_atom_site_fract_z 
_atom_site_charge 
N1          N  0.76677530  0.30275512  0.45195360    -0.27000
N2          N  0.76887718  0.32904006  0.44047191    -0.34900
C3          C  0.76975592  0.32749951  0.41155813     0.01300
C4          C  0.76867510  0.29893235  0.40347250     0.07300
C5          C  0.76613065  0.28365664  0.42966700    -0.05800
H6          H  0.77082404  0.34619006  0.39741136     0.08000
H7          H  0.76432927  0.26041712  0.43220873     0.09200
Cu8        Cu  0.77460133  0.36727547  0.46196951     0.44200
Cu9        Cu  0.76593666  0.29595471  0.49818869     0.42000
Cu10       Cu  0.79004549  0.36220968  0.53407481     0.43900
N11         N  0.79519141  0.40043068  0.48279518    -0.34400
N12         N  0.80104195  0.39843110  0.51057822    -0.28700
C13         C  0.82058807  0.41869865  0.51752128    -0.04800
C14         C  0.82759667  0.43408906  0.49276133     0.07400
C15         C  0.81122979  0.42176579  0.47105068     0.01200
H16         H  0.83206754  0.41929160  0.53789093     0.08900
H17         H  0.81392014  0.42521336  0.44803799     0.08000
N18         N  0.77867829  0.32506974  0.55593149    -0.35900
N19         N  0.76865658  0.30088356  0.54449683    -0.28000
C20         C  0.76109372  0.28299689  0.56678105    -0.03300
C21         C  0.76705398  0.29670297  0.59327201     0.05300
C22         C  0.77831303  0.32318918  0.58482239     0.03400
H23         H  0.75098187  0.26219545  0.56372385     0.08500
H24         H  0.78531497  0.34052048  0.59881224     0.07400
N25         N  0.55525008  0.81256704  0.27090310    -0.27000
N26         N  0.56658990  0.83666060  0.28138613    -0.34900
C27         C  0.59565669  0.83491942  0.28150211     0.01300
C28         C  0.60386483  0.80844376  0.27070140     0.07300
C29         C  0.57764143  0.79489795  0.26363264    -0.05800
H30         H  0.60983856  0.85260087  0.28729983     0.08000
H31         H  0.57518817  0.77406369  0.25333703     0.09200
Cu32       Cu  0.54400452  0.87335157  0.29220589     0.44200
Cu33       Cu  0.50909698  0.80694042  0.26686044     0.42000
Cu34       Cu  0.47066586  0.87632195  0.27565246     0.43900
N35         N  0.51956421  0.90955940  0.30034507    -0.34400
N36         N  0.49208920  0.91134490  0.29283986    -0.28700
C37         C  0.48030497  0.93486042  0.30514771    -0.04800
C38         C  0.50141099  0.94842405  0.32164522     0.07400
C39         C  0.52606438  0.93163857  0.31787654     0.01200
H40         H  0.45732507  0.93960346  0.30494218     0.08900
H41         H  0.54611920  0.93317635  0.32984470     0.08000
N42         N  0.44995939  0.83711471  0.27043017    -0.35900
N43         N  0.46263161  0.81152749  0.26737264    -0.28000
C44         C  0.44127617  0.79129584  0.26563915    -0.03300
C45         C  0.41433889  0.80509536  0.26791484     0.05300
C46         C  0.42100143  0.83395519  0.27102886     0.03400
H47         H  0.44496817  0.76833407  0.26289049     0.08500
H48         H  0.40575121  0.85160698  0.27346490     0.07400
N49         N  0.28155334  0.45188907  0.78684847    -0.27000
N50         N  0.30389957  0.43991019  0.80032350    -0.34900
C51         C  0.30065987  0.41112899  0.80206136     0.01300
C52         C  0.27547330  0.40330106  0.78832256     0.07300
C53         C  0.26339591  0.42986350  0.77930700    -0.05800
H54         H  0.31635530  0.39675011  0.81187425     0.08000
H55         H  0.24350037  0.43270865  0.76726549     0.09200
Cu56       Cu  0.34149999  0.45984722  0.81240782     0.44200
Cu57       Cu  0.28001857  0.49847952  0.77968427     0.42000
Cu58       Cu  0.35195501  0.53045393  0.79541627     0.43900
N59         N  0.38043030  0.47935532  0.82048991    -0.34400
N60         N  0.38471435  0.50670203  0.81362729    -0.28700
C61         C  0.40835639  0.51634377  0.82741399    -0.04800
C62         C  0.41952350  0.49377679  0.84373652     0.07400
C63         C  0.40126354  0.47059733  0.83868114     0.01200
H64         H  0.41400140  0.53900131  0.82933258     0.08900
H65         H  0.40040209  0.45060011  0.85098804     0.08000
N66         N  0.31595128  0.55436843  0.78514044    -0.35900
N67         N  0.28975675  0.54458870  0.77877546    -0.28000
C68         C  0.27279346  0.56826341  0.77375743    -0.03300
C69         C  0.28934845  0.59371903  0.77706646     0.05300
C70         C  0.31625481  0.58339568  0.78499703     0.03400
H71         H  0.24999852  0.56720344  0.76836899     0.08500
H72         H  0.33487226  0.59585598  0.79140679     0.07400
N73         N  0.24205233  0.28907272  0.06243573    -0.27000
N74         N  0.23488151  0.31486365  0.07272546    -0.34900
C75         C  0.23841229  0.31530647  0.10152969     0.01300
C76         C  0.24824825  0.28870052  0.11085008     0.07300
C77         C  0.24990866  0.27226032  0.08545243    -0.05800
H78         H  0.23185293  0.33312887  0.11516773     0.08000
H79         H  0.25511898  0.24945797  0.08410574     0.09200
Cu80       Cu  0.21321459  0.34732432  0.05072659     0.44200
Cu81       Cu  0.23793791  0.27904656  0.01683144     0.42000
Cu82       Cu  0.18170723  0.32428654  0.98685126     0.43900
N83         N  0.18095122  0.37100388  0.03064467    -0.34400
N84         N  0.16863011  0.36146942  0.00684152    -0.28700
C85         C  0.14650959  0.37888871  0.99966400    -0.04800
C86         C  0.14484071  0.40054910  0.01997727     0.07400
C87         C  0.16669607  0.39476347  0.03963317     0.01200
H88         H  0.13168690  0.37508129  0.98198377     0.08900
H89         H  0.17066852  0.40577207  0.05982306     0.08000
N90         N  0.20453175  0.29546509  0.96233926    -0.35900
N91         N  0.22660398  0.27949602  0.97132935    -0.28000
C92         C  0.23831199  0.26668167  0.94749077    -0.03300
C93         C  0.22257745  0.27530739  0.92281956     0.05300
C94         C  0.20141973  0.29329903  0.93363900     0.03400
H95         H  0.25673185  0.25220008  0.94804921     0.08500
H96         H  0.18540587  0.30512021  0.92120549     0.07400
N97         N  0.30610927  0.05676088  0.23696200    -0.27000
N98         N  0.32340314  0.06789992  0.21686980    -0.34900
C99         C  0.32133929  0.09693572  0.21662718     0.01300
C100        C  0.30243724  0.10569240  0.23809406     0.07300
C101        C  0.29276401  0.07936583  0.25026919    -0.05800
H102        H  0.33252233  0.11056692  0.20119787     0.08000
H103        H  0.27694143  0.07695988  0.26742772     0.09200
Cu104      Cu  0.35096502  0.04513208  0.19019201     0.44200
Cu105      Cu  0.30205298  0.01032869  0.24357114     0.42000
Cu106      Cu  0.36188712  0.97275292  0.20843460     0.43900
N107        N  0.38085800  0.01983151  0.16883406    -0.34400
N108        N  0.38548863  0.99266265  0.17645552    -0.28700
C109        C  0.40503978  0.98084481  0.15850096    -0.04800
C110        C  0.41292173  0.00169505  0.13848968     0.07400
C111        C  0.39749701  0.02628670  0.14579901     0.01200
H112        H  0.41252363  0.95866707  0.15972865     0.08900
H113        H  0.39775156  0.04700518  0.13473939     0.08000
N114        N  0.32963877  0.95143354  0.23040943    -0.35900
N115        N  0.30668276  0.96354590  0.24266323    -0.28000
C116        C  0.28884249  0.94160609  0.25137081    -0.03300
C117        C  0.30153458  0.91493583  0.24404717     0.05300
C118        C  0.32717457  0.92247597  0.23078364     0.03400
H119        H  0.26775100  0.94473452  0.26116477     0.08500
H120        H  0.34256946  0.90784230  0.22088325     0.07400
N121        N  0.78386137  0.75263385  0.43673212    -0.27000
N122        N  0.80891256  0.74388224  0.42562078    -0.34900
C123        C  0.80873750  0.74654700  0.39672969     0.01300
C124        C  0.78262358  0.75785750  0.38794703     0.07300
C125        C  0.76694973  0.76111061  0.41393921    -0.05800
H126        H  0.82633810  0.73970865  0.38281969     0.08000
H127        H  0.74484554  0.76872417  0.41593572     0.09200
Cu128      Cu  0.84300222  0.72487820  0.44699061     0.44200
Cu129      Cu  0.77582455  0.75071527  0.48352446     0.42000
Cu130      Cu  0.83192235  0.70679403  0.51768276     0.43900
N131        N  0.87154921  0.69833661  0.46843074    -0.34400
N132        N  0.86707327  0.69166260  0.49578523    -0.28700
C133        C  0.88561578  0.67086431  0.50392912    -0.04800
C134        C  0.90233364  0.66385898  0.48026601     0.07400
C135        C  0.89301231  0.68165677  0.45802579     0.01200
H136        H  0.88493484  0.65966130  0.52453888     0.08900
H137        H  0.89937709  0.68063584  0.43552336     0.08000
N138        N  0.79859746  0.72449624  0.54042645    -0.35900
N139        N  0.77828228  0.74201421  0.53016969    -0.28000
C140        C  0.76287758  0.75154000  0.55355195    -0.03300
C141        C  0.77389667  0.73852052  0.57894548     0.05300
C142        C  0.79661155  0.72199749  0.56924551     0.03400
H143        H  0.74536437  0.76710365  0.55240944     0.08500
H144        H  0.81186149  0.71004731  0.58248117     0.07400
N145        N  0.23228995  0.71567858  0.05588147    -0.27000
N146        N  0.21561744  0.69561797  0.06799286    -0.34900
C147        C  0.21761389  0.69683344  0.09685922     0.01300
C148        C  0.23624110  0.71882289  0.10452677     0.07300
C149        C  0.24523028  0.73047162  0.07774440    -0.05800
H150        H  0.20504176  0.68336181  0.11144549     0.08000
H151        H  0.25874489  0.74926880  0.07432725     0.09200
Cu152      Cu  0.18496722  0.67057711  0.04791390     0.44200
Cu153      Cu  0.23382430  0.72177627  0.00936448     0.42000
Cu154      Cu  0.16864594  0.68976264  0.97818561     0.43900
N155        N  0.14759881  0.65622349  0.02862950    -0.34400
N156        N  0.14078270  0.66462261  0.00224528    -0.28700
C157        C  0.11610305  0.65155180  0.99422111    -0.04800
C158        C  0.10712632  0.63392381  0.01678526     0.07400
C159        C  0.12743582  0.63755893  0.03838923     0.01200
H160        H  0.10628905  0.65366528  0.97309883     0.08900
H161        H  0.12835838  0.62628872  0.05894496     0.08000
N162        N  0.20140312  0.70758699  0.95372285    -0.35900
N163        N  0.22563615  0.71947467  0.96329537    -0.28000
C164        C  0.24117203  0.72817314  0.93962600    -0.03300
C165        C  0.22575558  0.72106653  0.91434618     0.05300
C166        C  0.20086206  0.70811365  0.92478967     0.03400
H167        H  0.26163632  0.73947127  0.94081465     0.08500
H168        H  0.18320059  0.69956959  0.91204238     0.07400
O169        O  0.03131793  0.47398521  0.99797932    -0.72700
O170        O  0.95592637  0.51564042  0.98959652    -0.73700
O171        O  0.01475626  0.53216794  0.99473198    -0.62300
O172        O  0.97296751  0.45700069  0.99276322    -0.70700
O173        O  0.96802598  0.45793552  0.04036441    -0.70300
O174        O  0.01053820  0.53375759  0.04246306    -0.61500
O175        O  0.95098388  0.51699586  0.03705704    -0.74000
O176        O  0.02652613  0.47476487  0.04577223    -0.72800
Cu177      Cu  0.99379071  0.49475862  0.99215239     1.04600
Cu178      Cu  0.98872816  0.49601280  0.04311948     1.04300
C179        C  0.04066108  0.46757419  0.02316438     0.93500
C180        C  0.94123591  0.52285683  0.01188992     0.92600
C181        C  0.02043230  0.54424689  0.01881053     0.84800
C182        C  0.96411898  0.44526193  0.01623244     0.91100
N183        N  0.72370660  0.97493229  0.19637633    -0.27000
N184        N  0.72597203  0.96340284  0.17028413    -0.34900
C185        C  0.72825924  0.93448928  0.17239586     0.01300
C186        C  0.72671962  0.92624279  0.20108584     0.07300
C187        C  0.72437416  0.95265013  0.21590821    -0.05800
H188        H  0.72943947  0.92018163  0.15398616     0.08000
H189        H  0.72215706  0.95525568  0.23903628     0.09200
Cu190      Cu  0.72054866  0.98452177  0.13113372     0.44200
Cu191      Cu  0.71838124  0.02133522  0.20172163     0.42000
Cu192      Cu  0.70334887  0.05703764  0.13172106     0.43900
N193        N  0.70264839  0.00459460  0.09533675    -0.34400
N194        N  0.69549777  0.03219531  0.09595838    -0.28700
C195        C  0.67764518  0.03814929  0.07382776    -0.04800
C196        C  0.67323689  0.01296942  0.05828821     0.07400
C197        C  0.68965975  0.99212738  0.07260667     0.01200
H198        H  0.66570253  0.05821481  0.07155481     0.08900
H199        H  0.68917140  0.96899229  0.06902739     0.08000
N200        N  0.70815872  0.07918595  0.16976438    -0.35900
N201        N  0.71333871  0.06773931  0.19556949    -0.28000
C202        C  0.71557426  0.09015033  0.21442299    -0.03300
C203        C  0.71098869  0.11649442  0.19966968     0.05300
C204        C  0.70701898  0.10819065  0.17139308     0.03400
H205        H  0.72076612  0.08767373  0.23710067     0.08500
H206        H  0.70524351  0.12219952  0.15270745     0.07400
O207        O  0.49230452  0.97636467  0.02512930    -0.72700
O208        O  0.52281074  0.98051626  0.94461367    -0.73700
O209        O  0.54844873  0.97849148  0.99972381    -0.62300
O210        O  0.46760394  0.97843635  0.96979521    -0.70700
O211        O  0.46623123  0.02619835  0.97237004    -0.70300
O212        O  0.54821479  0.02641514  0.00109039    -0.61500
O213        O  0.52120835  0.02859772  0.94599124    -0.74000
O214        O  0.49230929  0.02437565  0.02728148    -0.72800
Cu215      Cu  0.50795099  0.97680611  0.98484380     1.04600
Cu216      Cu  0.50709156  0.02811213  0.98682914     1.04300
C217        C  0.48663684  0.99975880  0.03860019     0.93500
C218        C  0.52621837  0.00512588  0.93244223     0.92600
C219        C  0.56129152  0.00229304  0.00511487     0.84800
C220        C  0.45403662  0.00227763  0.96600543     0.91100
N221        N  0.76752775  0.28326857  0.04383208    -0.27000
N222        N  0.79441152  0.28320958  0.05390700    -0.34900
C223        C  0.79400436  0.28367527  0.08289631     0.01300
C224        C  0.76565665  0.28395667  0.09244493     0.07300
C225        C  0.74925910  0.28378325  0.06695532    -0.05800
H226        H  0.81322706  0.28499761  0.09621150     0.08000
H227        H  0.72594383  0.28543728  0.06526585     0.09200
Cu228      Cu  0.83199003  0.28842790  0.03016316     0.44200
Cu229      Cu  0.75847796  0.28506735  0.99830612     0.42000
Cu230      Cu  0.82102407  0.31649073  0.96201801     0.43900
N231        N  0.86480453  0.30941823  0.00816697    -0.34400
N232        N  0.86010249  0.32084973  0.98245850    -0.28700
C233        C  0.88161791  0.33927241  0.97587552    -0.04800
C234        C  0.90096557  0.33959412  0.99866631     0.07400
C235        C  0.88949085  0.32042428  0.01886241     0.01200
H236        H  0.88091636  0.35435202  0.95789794     0.08900
H237        H  0.89638019  0.31783926  0.04107807     0.08000
N238        N  0.78413822  0.30430801  0.94080970    -0.35900
N239        N  0.76146383  0.29095357  0.95230560    -0.28000
C240        C  0.74452917  0.28170618  0.93012536    -0.03300
C241        C  0.75742921  0.29002818  0.90382346     0.05300
C242        C  0.78227974  0.30432785  0.91196750     0.03400
H243        H  0.72543777  0.26839148  0.93290027     0.08500
H244        H  0.79907824  0.31252642  0.89772500     0.07400
C245        C  0.73711648  0.75302490  0.24430253     0.45700
H246        H  0.72124790  0.73977465  0.25622139    -0.03300
C247        C  0.77204145  0.78540201  0.21462497     0.45800
H248        H  0.78662534  0.79921952  0.20154346    -0.03300
C249        C  0.72386795  0.78294234  0.23704164    -0.17000
C250        C  0.76589159  0.75945623  0.26098714    -0.16800
C251        C  0.74611893  0.73917669  0.21474387    -0.17100
C252        C  0.74335238  0.80166820  0.22424842    -0.17100
C253        C  0.78638810  0.77291265  0.24307193    -0.16700
C254        C  0.76232948  0.75791474  0.19742231    -0.17000
N255        N  0.71936765  0.47366514  0.21944262    -0.27000
N256        N  0.69154210  0.46663098  0.21921321    -0.34900
C257        C  0.68835201  0.43774742  0.21934967     0.01300
C258        C  0.71530947  0.42505406  0.21936354     0.07300
C259        C  0.73468132  0.44848574  0.22016189    -0.05800
H260        H  0.66761881  0.42678665  0.21942937     0.08000
H261        H  0.75810084  0.44717246  0.22081399     0.09200
Cu262      Cu  0.65788060  0.49461115  0.21287050     0.44200
Cu263      Cu  0.73279334  0.51837614  0.21625100     0.42000
Cu264      Cu  0.68293580  0.54964007  0.16630726     0.43900
N265        N  0.63142715  0.51418820  0.18337624    -0.34400
N266        N  0.64134602  0.53362219  0.16482564    -0.28700
C267        C  0.62057413  0.53976772  0.14555405    -0.04800
C268        C  0.59646567  0.52326308  0.15235752     0.07400
C269        C  0.60421079  0.50690745  0.17618881     0.01200
H270        H  0.62329694  0.55407515  0.12713064     0.08900
H271        H  0.59171053  0.48988741  0.18648554     0.08000
N272        N  0.71695956  0.57277714  0.18300677    -0.35900
N273        N  0.73393768  0.56356069  0.20411863    -0.28000
C274        C  0.74752479  0.58720756  0.21525778    -0.03300
C275        C  0.73870706  0.61216241  0.19994958     0.05300
C276        C  0.71955310  0.60150076  0.17968965     0.03400
H277        H  0.76084198  0.58652929  0.23442815     0.08500
H278        H  0.70620261  0.61419756  0.16515651     0.07400
C279        C  0.76152138  0.25394522  0.23107746     0.45700
H280        H  0.77622044  0.24191374  0.21649428    -0.03300
C281        C  0.72594380  0.28157765  0.26416140     0.45800
H282        H  0.71041631  0.29342497  0.27793547    -0.03300
C283        C  0.75252021  0.28416265  0.21831917    -0.17000
C284        C  0.73281719  0.23685378  0.23660190    -0.16800
C285        C  0.77477895  0.26017621  0.26146391    -0.17100
C286        C  0.73581624  0.30015109  0.23749395    -0.17100
C287        C  0.71258171  0.25311893  0.25161958    -0.16700
C288        C  0.75438313  0.27206463  0.28024645    -0.17000
N289        N  0.54313034  0.23050978  0.28890826    -0.27000
N290        N  0.55647725  0.22770334  0.31410624    -0.34900
C291        C  0.58526263  0.22579421  0.31018387     0.01300
C292        C  0.59145721  0.22705453  0.28107224     0.07300
C293        C  0.56412210  0.23076616  0.26810177    -0.05800
H294        H  0.60077649  0.22517400  0.32767823     0.08000
H295        H  0.56001803  0.23397847  0.24528867     0.09200
Cu296      Cu  0.53736455  0.22727227  0.35429350     0.44200
Cu297      Cu  0.49623692  0.23465501  0.28643539     0.42000
Cu298      Cu  0.46465179  0.24089141  0.35952489     0.43900
N299        N  0.51534187  0.21930245  0.39213787    -0.34400
N300        N  0.48729882  0.22432820  0.39411534    -0.28700
C301        C  0.47624988  0.20816659  0.41571110    -0.04800
C302        C  0.49848000  0.19206696  0.42793362     0.07400
C303        C  0.52301541  0.20002129  0.41254485     0.01200
H304        H  0.45328383  0.20419189  0.41857690     0.08900
H305        H  0.54341888  0.18841222  0.41239333     0.08000
N306        N  0.44051364  0.24283656  0.32221032    -0.35900
N307        N  0.45018137  0.23920922  0.29548329    -0.28000
C308        C  0.42650118  0.23812445  0.27791740    -0.03300
C309        C  0.40109897  0.24134764  0.29461175     0.05300
C310        C  0.41144551  0.24418137  0.32241380     0.03400
H311        H  0.42769574  0.23398868  0.25499749     0.08500
H312        H  0.39854549  0.24618557  0.34188098     0.07400
N313        N  0.03087846  0.22520305  0.71902131    -0.27000
N314        N  0.04277962  0.20602975  0.70139530    -0.34900
C315        C  0.07159837  0.20517666  0.70541027     0.01300
C316        C  0.07929160  0.22483847  0.72641678     0.07300
C317        C  0.05266679  0.23709785  0.73481630    -0.05800
H318        H  0.08623245  0.19170954  0.69303261     0.08000
H319        H  0.04927230  0.25326826  0.75124731     0.09200
Cu320      Cu  0.02176871  0.18284500  0.66966612     0.44200
Cu321      Cu  0.98484614  0.23396649  0.71868852     0.42000
Cu322      Cu  0.95133109  0.20427766  0.65343684     0.43900
N323        N  0.99977007  0.16638166  0.63460213    -0.34400
N324        N  0.97336134  0.17517124  0.62809047    -0.28700
C325        C  0.96364784  0.16017773  0.60528957    -0.04800
C326        C  0.98528602  0.14132752  0.59673459     0.07400
C327        C  0.00779038  0.14556138  0.61602825     0.01200
H328        H  0.94202932  0.16196397  0.59639412     0.08900
H329        H  0.02775078  0.13334772  0.61757209     0.08000
N330        N  0.92843880  0.22608791  0.68469551    -0.35900
N331        N  0.93909746  0.23657229  0.70906237    -0.28000
C332        C  0.91629794  0.24646613  0.72495107    -0.03300
C333        C  0.89052501  0.24183855  0.70959027     0.05300
C334        C  0.89945282  0.22880235  0.68440778     0.03400
H335        H  0.91813303  0.25513447  0.74653960     0.08500
H336        H  0.88562175  0.22072822  0.66738860     0.07400
O337        O  0.00512231  0.03355439  0.51533098    -0.72700
O338        O  0.01628003  0.95531205  0.48141488    -0.73700
O339        O  0.00824795  0.01183712  0.45822963    -0.62300
O340        O  0.01280723  0.97757387  0.53774651    -0.70700
O341        O  0.96518381  0.97078197  0.53723778    -0.70300
O342        O  0.96048444  0.00607001  0.45860519    -0.61500
O343        O  0.96876061  0.94910973  0.48064398    -0.74000
O344        O  0.95747485  0.02735930  0.51590278    -0.72800
Cu345      Cu  0.01226320  0.99481606  0.49802283     1.04600
Cu346      Cu  0.96130124  0.98808543  0.49794720     1.04300
C347        C  0.97978593  0.04241504  0.52217351     0.93500
C348        C  0.99437131  0.93944551  0.47608202     0.92600
C349        C  0.98359558  0.01477311  0.44604212     0.84800
C350        C  0.98958001  0.96867191  0.54998260     0.91100
N351        N  0.20440949  0.27740321  0.47054539    -0.27000
N352        N  0.18353595  0.29311777  0.45868873    -0.34900
C353        C  0.18746157  0.29523940  0.43006410     0.01300
C354        C  0.21212333  0.28036057  0.42260875     0.07300
C355        C  0.22224907  0.26871099  0.44877739    -0.05800
H356        H  0.17245356  0.30576630  0.41542586     0.08000
H357        H  0.24076129  0.25456928  0.45156781     0.09200
Cu358      Cu  0.14780893  0.30888758  0.47936742     0.44200
Cu359      Cu  0.20469553  0.26953317  0.51644594     0.42000
Cu360      Cu  0.13492017  0.29335078  0.55086594     0.43900
N361        N  0.11078640  0.32245288  0.49936341    -0.34400
N362        N  0.10524688  0.31633218  0.52664034    -0.28700
C363        C  0.08160214  0.33118202  0.53498965    -0.04800
C364        C  0.07178770  0.34731512  0.51152294     0.07400
C365        C  0.09106207  0.34128261  0.48940954     0.01200
H366        H  0.07365935  0.33203888  0.55699915     0.08900
H367        H  0.09233406  0.35184010  0.46850949     0.08000
N368        N  0.17033562  0.27752769  0.57309170    -0.35900
N369        N  0.19555274  0.26903033  0.56212072    -0.28000
C370        C  0.21314387  0.26205288  0.58465682    -0.03300
C371        C  0.19809712  0.26659173  0.61052256     0.05300
C372        C  0.17127219  0.27643852  0.60207793     0.03400
H373        H  0.23541144  0.25497781  0.58248294     0.08500
H374        H  0.15366785  0.28295644  0.61613173     0.07400
N375        N  0.25952568  0.04373655  0.79154123    -0.27000
N376        N  0.26626721  0.05135006  0.81823636    -0.34900
C377        C  0.26452909  0.08020341  0.82117007     0.01300
C378        C  0.25573100  0.09243041  0.79538443     0.07300
C379        C  0.25315358  0.06855423  0.77677275    -0.05800
H380        H  0.27094475  0.09154439  0.84047661     0.08000
H381        H  0.24745184  0.06936999  0.75410858     0.09200
Cu382      Cu  0.28264327  0.02445050  0.84962820     0.44200
Cu383      Cu  0.26185767  0.99870925  0.77849276     0.42000
Cu384      Cu  0.31649889  0.96295076  0.82272158     0.43900
N385        N  0.31264897  0.00186688  0.87335705    -0.34400
N386        N  0.32656504  0.97946153  0.86253386    -0.28700
C387        C  0.34787345  0.97160654  0.88064530    -0.04800
C388        C  0.34730287  0.99012654  0.90404418     0.07400
C389        C  0.32483744  0.00923222  0.89857374     0.01200
H390        H  0.36387164  0.95507861  0.87610524     0.08900
H391        H  0.31928094  0.02837161  0.91079464     0.08000
N392        N  0.29313953  0.94170560  0.79173386    -0.35900
N393        N  0.27151876  0.95275083  0.77642020    -0.28000
C394        C  0.25782739  0.93014344  0.76337784    -0.03300
C395        C  0.27187205  0.90416596  0.77099897     0.05300
C396        C  0.29392559  0.91282537  0.78895391     0.03400
H397        H  0.23817985  0.93215599  0.75079000     0.08500
H398        H  0.30830023  0.89876146  0.80106425     0.07400
C399        C  0.25046473  0.26619393  0.74951223     0.45700
H400        H  0.26463586  0.27980534  0.73576776    -0.03300
C401        C  0.21768369  0.23301823  0.78082799     0.45800
H402        H  0.20327633  0.21889436  0.79394303    -0.03300
C403        C  0.22172892  0.25791531  0.73427546    -0.17000
C404        C  0.26571916  0.23746789  0.75862366    -0.16800
C405        C  0.24119473  0.28082330  0.77817652    -0.17100
C406        C  0.20352390  0.24159884  0.75153215    -0.17100
C407        C  0.24705577  0.21830363  0.77239329    -0.16700
C408        C  0.22578077  0.26218176  0.79620170    -0.17000
N409        N  0.53169572  0.21803282  0.73334442    -0.27000
N410        N  0.54423607  0.19356543  0.72512072    -0.34900
C411        C  0.57317824  0.19669630  0.72436211     0.01300
C412        C  0.58022363  0.22430437  0.73275845     0.07300
C413        C  0.55333493  0.23744369  0.73844315    -0.05800
H414        H  0.58818187  0.17988200  0.71791131     0.08000
H415        H  0.54986391  0.25953720  0.74530364     0.09200
Cu416      Cu  0.52374142  0.15638757  0.71199471     0.44200
Cu417      Cu  0.48481212  0.22226791  0.73521763     0.42000
Cu418      Cu  0.45053901  0.16196576  0.69690726     0.43900
N419        N  0.50328908  0.12672133  0.68620094    -0.34400
N420        N  0.47571648  0.12971911  0.67939099    -0.28700
C421        C  0.46940698  0.11189869  0.65747885    -0.04800
C422        C  0.49442734  0.09722120  0.64991492     0.07400
C423        C  0.51543031  0.10677323  0.66894263     0.01200
H424        H  0.44889493  0.11160466  0.64615827     0.08900
H425        H  0.53821421  0.10132752  0.66901129     0.08000
N426        N  0.42730715  0.19452347  0.71642611    -0.35900
N427        N  0.43826225  0.21656670  0.73102016    -0.28000
C428        C  0.41543491  0.23219162  0.74135752    -0.03300
C429        C  0.38939530  0.21945494  0.73218649     0.05300
C430        C  0.39819018  0.19553492  0.71687033     0.03400
H431        H  0.41748342  0.25126456  0.75466969     0.08500
H432        H  0.38429637  0.17938135  0.70723092     0.07400
C433        C  0.71952361  0.27910737  0.73245847     0.45700
H434        H  0.70617896  0.29370447  0.71925894    -0.03300
C435        C  0.75172190  0.24442786  0.76288263     0.45800
H436        H  0.76555410  0.22983040  0.77557573    -0.03300
C437        C  0.74839856  0.27122249  0.71714097    -0.17000
C438        C  0.72817182  0.29200484  0.76211533    -0.16800
C439        C  0.70444683  0.24986576  0.73958968    -0.17100
C440        C  0.76607318  0.25372416  0.73380692    -0.17100
C441        C  0.74401400  0.27287489  0.77902183    -0.16700
C442        C  0.72215234  0.23089257  0.75472286    -0.17000
N443        N  0.72395674  0.46622071  0.78249229    -0.27000
N444        N  0.70776638  0.45625664  0.80398581    -0.34900
C445        C  0.70638428  0.42732331  0.80354150     0.01300
C446        C  0.72267679  0.41735836  0.78087241     0.07300
C447        C  0.73366199  0.44264675  0.76764940    -0.05800
H448        H  0.69463634  0.41430767  0.81919152     0.08000
H449        H  0.74735414  0.44370458  0.74864987     0.09200
Cu450      Cu  0.68966446  0.48014172  0.83582625     0.44200
Cu451      Cu  0.72968399  0.51275680  0.77761584     0.42000
Cu452      Cu  0.70613449  0.55171661  0.84509671     0.43900
N453        N  0.67669175  0.50138279  0.87179462    -0.34400
N454        N  0.68317166  0.52876295  0.87620772    -0.28700
C455        C  0.66845085  0.53798432  0.89956203    -0.04800
C456        C  0.65184363  0.51505306  0.90987286     0.07400
C457        C  0.65789711  0.49216855  0.89191267     0.01200
H458        H  0.66803743  0.56016355  0.90692994     0.08900
H459        H  0.64718903  0.47131228  0.89166479     0.08000
N460        N  0.72066263  0.57204604  0.80765501    -0.35900
N461        N  0.72859658  0.55957193  0.78305654    -0.28000
C462        C  0.73445940  0.58124064  0.76375048    -0.03300
C463        C  0.73003052  0.60812533  0.77705472     0.05300
C464        C  0.72123403  0.60104448  0.80467143     0.03400
H465        H  0.74111623  0.57780771  0.74159245     0.08500
H466        H  0.71512005  0.61607919  0.82148418     0.07400
C467        C  0.75371120  0.78096885  0.75143824     0.45700
H468        H  0.76459457  0.79525122  0.76717324    -0.03300
C469        C  0.72765028  0.74627543  0.71639400     0.45800
H470        H  0.71654278  0.73115855  0.70180039    -0.03300
C471        C  0.72494214  0.79388852  0.73899186    -0.17000
C472        C  0.77274268  0.77354283  0.72471577    -0.16800
C473        C  0.74589615  0.75154234  0.76565394    -0.17100
C474        C  0.70959766  0.77411757  0.72256828    -0.17100
C475        C  0.75770269  0.75740296  0.70433259    -0.16700
C476        C  0.73373743  0.73212427  0.74650169    -0.17000
N477        N  0.53418254  0.78227317  0.70201811    -0.27000
N478        N  0.54465594  0.79046371  0.67661255    -0.34900
C479        C  0.57368312  0.78989780  0.67702759     0.01300
C480        C  0.58313140  0.78078218  0.70387959     0.07300
C481        C  0.55722073  0.77598780  0.71935652    -0.05800
H482        H  0.58715869  0.79625824  0.65887865     0.08000
H483        H  0.55513397  0.76807428  0.74126551     0.09200
Cu484      Cu  0.52122431  0.80518956  0.64179335     0.44200
Cu485      Cu  0.48803581  0.78147988  0.70942376     0.42000
Cu486      Cu  0.45118403  0.82801887  0.65510671     0.43900
N487        N  0.50029361  0.83281826  0.61387697    -0.34400
N488        N  0.47423567  0.84296151  0.61977637    -0.28700
C489        C  0.46772188  0.86405968  0.60073066    -0.04800
C490        C  0.49111064  0.86747660  0.58219592     0.07400
C491        C  0.51124238  0.84703142  0.59091373     0.01200
H492        H  0.44819704  0.87706191  0.60135373     0.08900
H493        H  0.53272048  0.84354801  0.58219667     0.08000
N494        N  0.42975881  0.80402889  0.68629386    -0.35900
N495        N  0.44169864  0.78638900  0.70559738    -0.28000
C496        C  0.41973128  0.77329132  0.72033864    -0.03300
C497        C  0.39308312  0.78283954  0.70924857     0.05300
C498        C  0.40072183  0.80274595  0.68824492     0.03400
H499        H  0.42278700  0.75774668  0.73766087     0.08500
H500        H  0.38628657  0.81609734  0.67553056     0.07400
C501        C  0.22698651  0.76275890  0.77293925     0.45700
H502        H  0.21326754  0.77631036  0.78702408    -0.03300
C503        C  0.25978739  0.73140446  0.74039917     0.45800
H504        H  0.27406829  0.71825636  0.72625722    -0.03300
C505        C  0.21231591  0.75465837  0.74359682    -0.17000
C506        C  0.25566536  0.77828088  0.76455436    -0.16800
C507        C  0.23567166  0.73363885  0.78770133    -0.17100
C508        C  0.23090093  0.73967619  0.72543159    -0.17100
C509        C  0.27399560  0.76057819  0.74887435    -0.16700
C510        C  0.25135424  0.71589260  0.76930225    -0.17000
N511        N  0.05297660  0.77375426  0.28719212    -0.27000
N512        N  0.06181831  0.77594552  0.31436198    -0.34900
C513        C  0.09086234  0.77395746  0.31574913     0.01300
C514        C  0.10191296  0.76998096  0.28839893     0.07300
C515        C  0.07723287  0.77031266  0.27056845    -0.05800
H516        H  0.10325094  0.77617944  0.33545297     0.08000
H517        H  0.07709259  0.76846249  0.24726676     0.09200
Cu518      Cu  0.03642616  0.78482629  0.34995379     0.44200
Cu519      Cu  0.00709817  0.77684174  0.27590022     0.42000
Cu520      Cu  0.96613290  0.80653207  0.33642432     0.43900
N521        N  0.01132445  0.80348058  0.38166679    -0.34400
N522        N  0.98473084  0.81219887  0.37605355    -0.28700
C523        C  0.97511138  0.82865165  0.39780984    -0.04800
C524        C  0.99681122  0.83055726  0.41831710     0.07400
C525        C  0.01955393  0.81425298  0.40728892     0.01200
H526        H  0.95526590  0.84114827  0.39705754     0.08900
H527        H  0.04143676  0.81305385  0.41561788     0.08000
N528        N  0.94715079  0.79576784  0.29808866    -0.35900
N529        N  0.96023537  0.78367941  0.27566071    -0.28000
C530        C  0.93904213  0.77697807  0.25625739    -0.03300
C531        C  0.91197369  0.78580889  0.26726495     0.05300
C532        C  0.91842549  0.79732543  0.29377299     0.03400
H533        H  0.94277928  0.76577296  0.23611580     0.08500
H534        H  0.90301949  0.80515866  0.30959995     0.07400
C535        C  0.27650756  0.74517958  0.27410451     0.45700
H536        H  0.29029768  0.73158396  0.28808236    -0.03300
C537        C  0.24349007  0.77598928  0.24057990     0.45800
H538        H  0.22943335  0.78880678  0.22609486    -0.03300
C539        C  0.24771618  0.75489285  0.28885809    -0.17000
C540        C  0.29134414  0.77339243  0.26381428    -0.16800
C541        C  0.26770741  0.72892700  0.24641020    -0.17100
C542        C  0.22887589  0.76919908  0.27025480    -0.17100
C543        C  0.27314202  0.79089727  0.24759844    -0.16700
C544        C  0.25132715  0.74586655  0.22778282    -0.17000
N545        N  0.28231008  0.45992710  0.23737938    -0.27000
N546        N  0.29988112  0.44848397  0.21782473    -0.34900
C547        C  0.30024627  0.41948035  0.22023418     0.01300
C548        C  0.28210611  0.41111124  0.24238813     0.07300
C549        C  0.27059221  0.43738830  0.25263388    -0.05800
H550        H  0.31157599  0.40527215  0.20549236     0.08000
H551        H  0.25437306  0.43972483  0.26939880     0.09200
Cu552      Cu  0.31865581  0.47028823  0.18394550     0.44200
Cu553      Cu  0.27582797  0.50676495  0.23927391     0.42000
Cu554      Cu  0.29474119  0.54033780  0.16964386     0.43900
N555        N  0.32768351  0.49087972  0.14561009    -0.34400
N556        N  0.31796414  0.51708882  0.13970464    -0.28700
C557        C  0.32968291  0.52622409  0.11465476    -0.04800
C558        C  0.34718445  0.50432025  0.10408886     0.07400
C559        C  0.34563744  0.48236956  0.12445839     0.01200
H560        H  0.32772115  0.54801520  0.10613377     0.08900
H561        H  0.35868424  0.46289476  0.12527113     0.08000
N562        N  0.28214118  0.56393934  0.20510544    -0.35900
N563        N  0.27572885  0.55343015  0.23106307    -0.28000
C564        C  0.27112490  0.57663265  0.24866995    -0.03300
C565        C  0.27491222  0.60251960  0.23274778     0.05300
C566        C  0.28198731  0.59302853  0.20544419     0.03400
H567        H  0.26645355  0.57483361  0.27151506     0.08500
H568        H  0.28728354  0.60652034  0.18695906     0.07400
N569        N  0.23355659  0.72578194  0.46076423    -0.27000
N570        N  0.22518493  0.70004399  0.45155730    -0.34900
C571        C  0.22704932  0.69873730  0.42269718     0.01300
C572        C  0.23801963  0.72447202  0.41214453     0.07300
C573        C  0.24149218  0.74147631  0.43703884    -0.05800
H574        H  0.21913981  0.68068988  0.41030350     0.08000
H575        H  0.24864120  0.76378018  0.43765814     0.09200
Cu576      Cu  0.20655049  0.66791755  0.47590029     0.44200
Cu577      Cu  0.23037527  0.73673836  0.50593268     0.42000
Cu578      Cu  0.17207069  0.69293887  0.53714876     0.43900
N579        N  0.17395772  0.64477093  0.49517227    -0.34400
N580        N  0.15974010  0.65507785  0.51762072    -0.28700
C581        C  0.13740350  0.63748612  0.52385640    -0.04800
C582        C  0.13747294  0.61534585  0.50391907     0.07400
C583        C  0.16102909  0.62042937  0.48612694     0.01200
H584        H  0.12164385  0.64117714  0.54081411     0.08900
H585        H  0.16766954  0.60809413  0.46743696     0.08000
N586        N  0.19617802  0.72176833  0.56066025    -0.35900
N587        N  0.21875889  0.73681398  0.55114752    -0.28000
C588        C  0.23212527  0.74827928  0.57468485    -0.03300
C589        C  0.21689379  0.73996800  0.59968610     0.05300
C590        C  0.19449016  0.72321567  0.58955077     0.03400
H591        H  0.25232191  0.76017830  0.57390938     0.08500
H592        H  0.17920670  0.71097537  0.60255114     0.07400
N593        N  0.04143509  0.79319657  0.73525754    -0.27000
N594        N  0.05307824  0.81837699  0.72775035    -0.34900
C595        C  0.08202301  0.81712474  0.72927270     0.01300
C596        C  0.09016338  0.79011216  0.73882689     0.07300
C597        C  0.06380357  0.77508111  0.74193803    -0.05800
H598        H  0.09623025  0.83477158  0.72316961     0.08000
H599        H  0.06123616  0.75269307  0.74849086     0.09200
Cu600      Cu  0.03231600  0.85493776  0.71412884     0.44200
Cu601      Cu  0.99486956  0.78673460  0.73474833     0.42000
Cu602      Cu  0.95997685  0.85655241  0.71569801     0.43900
N603        N  0.01094512  0.88968221  0.69713202    -0.34400
N604        N  0.98252985  0.89102717  0.69886800    -0.28700
C605        C  0.97286942  0.91114874  0.68023454    -0.04800
C606        C  0.99652668  0.92275222  0.66565074     0.07400
C607        C  0.02035828  0.90850294  0.67702150     0.01200
H608        H  0.95032462  0.91357827  0.67420477     0.08900
H609        H  0.04201160  0.90806819  0.66799691     0.08000
N610        N  0.93790720  0.81849261  0.72247020    -0.35900
N611        N  0.94852939  0.79283438  0.72978081    -0.28000
C612        C  0.92551303  0.77443863  0.73277672    -0.03300
C613        C  0.89962240  0.78952520  0.72666439     0.05300
C614        C  0.90905104  0.81714275  0.72012705     0.03400
H615        H  0.92746517  0.75218477  0.73982594     0.08500
H616        H  0.89561142  0.83553412  0.71443978     0.07400
N617        N  0.69173765  0.05812293  0.75777168    -0.27000
N618        N  0.66592263  0.06994048  0.76228861    -0.34900
C619        C  0.66800876  0.09890397  0.76297084     0.01300
C620        C  0.69637605  0.10670243  0.75838572     0.07300
C621        C  0.71109144  0.08029275  0.75508792    -0.05800
H622        H  0.64988709  0.11339767  0.76642495     0.08000
H623        H  0.73406404  0.07753243  0.75115215     0.09200
Cu624      Cu  0.62751235  0.04847902  0.76842927     0.44200
Cu625      Cu  0.69719308  0.01144346  0.75666593     0.42000
Cu626      Cu  0.62650279  0.97468426  0.76529423     0.43900
N627        N  0.59179092  0.02567089  0.78172278    -0.34400
N628        N  0.59110948  0.99724343  0.77992077    -0.28700
C629        C  0.57104082  0.98696618  0.79831683    -0.04800
C630        C  0.55882785  0.01009931  0.81289603     0.07400
C631        C  0.57232308  0.03434672  0.80144722     0.01200
H632        H  0.56975133  0.96446183  0.80489249     0.08900
H633        H  0.57226849  0.05575919  0.81085013     0.08000
N634        N  0.66533339  0.95306310  0.76223958    -0.35900
N635        N  0.69135873  0.96482583  0.75885408    -0.28000
C636        C  0.71076379  0.94262292  0.75723498    -0.03300
C637        C  0.69603014  0.91620029  0.76058935     0.05300
C638        C  0.66740563  0.92407027  0.76333717     0.03400
H639        H  0.73372950  0.94533281  0.75320535     0.08500
H640        H  0.64903529  0.90956653  0.76503352     0.07400
N641        N  0.03666147  0.22180748  0.29130514    -0.27000
N642        N  0.04833548  0.19690450  0.29963858    -0.34900
C643        C  0.07740760  0.19876497  0.29914720     0.01300
C644        C  0.08531049  0.22609307  0.28993170     0.07300
C645        C  0.05885043  0.24035748  0.28524560    -0.05800
H646        H  0.09189766  0.18099048  0.30416459     0.08000
H647        H  0.05607066  0.26214919  0.27698917     0.09200
Cu648      Cu  0.02575652  0.15982751  0.31014249     0.44200
Cu649      Cu  0.99017147  0.22663139  0.28784647     0.42000
Cu650      Cu  0.95282531  0.15551259  0.29183071     0.43900
N651        N  0.00055702  0.12473405  0.32135449    -0.34400
N652        N  0.97318349  0.12251862  0.31354023    -0.28700
C653        C  0.96087369  0.10017971  0.32771038    -0.04800
C654        C  0.98159507  0.08809172  0.34569616     0.07400
C655        C  0.00658846  0.10390140  0.34073723     0.01200
H656        H  0.93818111  0.09458137  0.32632094     0.08900
H657        H  0.02686813  0.10205801  0.35233705     0.08000
N658        N  0.93172171  0.19439642  0.28758115    -0.35900
N659        N  0.94371094  0.22047868  0.28689378    -0.28000
C660        C  0.92170528  0.24007977  0.28603174    -0.03300
C661        C  0.89508432  0.22539284  0.28717034     0.05300
C662        C  0.90269974  0.19659473  0.28750007     0.03400
H663        H  0.92470215  0.26328513  0.28460395     0.08500
H664        H  0.88816300  0.17822861  0.28695204     0.07400
C665        C  0.25907159  0.27105841  0.28516004     0.45700
H666        H  0.27246768  0.28401688  0.30019598    -0.03300
C667        C  0.22899294  0.24013182  0.24996952     0.45800
H668        H  0.21727069  0.22716790  0.23394226    -0.03300
C669        C  0.25190050  0.28738881  0.25641211    -0.17000
C670        C  0.27469861  0.24282665  0.27649265    -0.16800
C671        C  0.22970992  0.26131908  0.29854461    -0.17100
C672        C  0.23860566  0.26955230  0.23632804    -0.17100
C673        C  0.25790171  0.22461461  0.25946283    -0.16700
C674        C  0.21138152  0.24867063  0.27834398    -0.17000
N675        N  0.77130632  0.71449323  0.02844833    -0.27000
N676        N  0.77129540  0.68783023  0.03914203    -0.34900
C677        C  0.77237187  0.68851744  0.06820039     0.01300
C678        C  0.77383040  0.71698069  0.07721651     0.07300
C679        C  0.77255327  0.73289055  0.05121593    -0.05800
H680        H  0.77194469  0.66931797  0.08153909     0.08000
H681        H  0.77300044  0.75623740  0.04912226     0.09200
Cu682      Cu  0.77617089  0.65060903  0.01529199     0.44200
Cu683      Cu  0.77090592  0.72311019  0.98241556     0.42000
Cu684      Cu  0.80483579  0.66374702  0.94556235     0.43900
N685        N  0.80260518  0.62136766  0.99455938    -0.34400
N686        N  0.81495769  0.62735531  0.96948556    -0.28700
C687        C  0.83632584  0.60823114  0.96463420    -0.04800
C688        C  0.83732101  0.58893688  0.98768466     0.07400
C689        C  0.81563033  0.59810585  0.00632354     0.01200
H690        H  0.85148853  0.60978987  0.94682989     0.08900
H691        H  0.81135978  0.59011778  0.02795627     0.08000
N692        N  0.78848456  0.69908444  0.92359635    -0.35900
N693        N  0.77478872  0.72103787  0.93586269    -0.28000
C694        C  0.76501400  0.73860702  0.91421827    -0.03300
C695        C  0.77369856  0.72722531  0.88747086     0.05300
C696        C  0.78814172  0.70206052  0.89467350     0.03400
H697        H  0.75230024  0.75801181  0.91753498     0.08500
H698        H  0.79687615  0.68627940  0.87979456     0.07400
O699        O  0.51626705  0.48584420  0.04456788    -0.72700
O700        O  0.48001980  0.48283969  0.96697186    -0.73700
O701        O  0.53764527  0.48423769  0.98709070    -0.62300
O702        O  0.45878298  0.48547874  0.02469326    -0.70700
O703        O  0.45907516  0.53344988  0.02212444    -0.70300
O704        O  0.53642247  0.53228369  0.98515971    -0.61500
O705        O  0.47944493  0.53099792  0.96459207    -0.74000
O706        O  0.51614199  0.53363578  0.04254064    -0.72800
Cu707      Cu  0.49816324  0.48285657  0.00586419     1.04600
Cu708      Cu  0.49776451  0.53422911  0.00351845     1.04300
C709        C  0.52190562  0.51011955  0.05612143     0.93500
C710        C  0.47411304  0.50629714  0.95357990     0.92600
C711        C  0.54918174  0.50840302  0.97987994     0.84800
C712        C  0.44706639  0.50996375  0.03026055     0.91100
O713        O  0.51775741  0.98011227  0.50109020    -0.72700
O714        O  0.51637641  0.06159274  0.47118045    -0.73700
O715        O  0.51841750  0.03553431  0.52628451    -0.62300
O716        O  0.51561131  0.00626660  0.44514623    -0.70700
O717        O  0.46770096  0.00618865  0.44680986    -0.70300
O718        O  0.47032066  0.03512837  0.52811154    -0.61500
O719        O  0.46818574  0.06134244  0.47272043    -0.74000
O720        O  0.46971011  0.97979303  0.50266122    -0.72800
Cu721      Cu  0.51871395  0.02079319  0.48575936     1.04600
Cu722      Cu  0.46729514  0.02052110  0.48755360     1.04300
C723        C  0.49396639  0.96736313  0.50746740     0.93500
C724        C  0.49207817  0.07432119  0.46748022     0.92600
C725        C  0.49477847  0.03999317  0.54000466     0.84800
C726        C  0.49119442  0.00185488  0.43287869     0.91100
O727        O  0.97135037  0.55055122  0.51151372    -0.72700
O728        O  0.00579301  0.47263417  0.52592493    -0.73700
O729        O  0.02789332  0.53021978  0.52174676    -0.62300
O730        O  0.94932082  0.49389373  0.51524915    -0.70700
O731        O  0.95644045  0.48756479  0.46817765    -0.70300
O732        O  0.03391470  0.52553481  0.47445962    -0.61500
O733        O  0.01321850  0.46764085  0.47894466    -0.74000
O734        O  0.97689475  0.54489053  0.46409289    -0.72800
Cu735      Cu  0.98846228  0.51194420  0.52028939     1.04600
Cu736      Cu  0.99547969  0.50614080  0.46978768     1.04300
C737        C  0.96839372  0.55979289  0.48565632     0.93500
C738        C  0.01473924  0.45754349  0.50470460     0.92600
C739        C  0.04287279  0.53461180  0.49889616     0.84800
C740        C  0.94054415  0.48508686  0.49065331     0.91100
C741        C  0.12875830  0.25720879  0.30001315    -0.05500
C742        C  0.11587334  0.23533728  0.28356839     0.00400
C743        C  0.13350479  0.22065903  0.26333145    -0.08200
C744        C  0.16361151  0.22568314  0.26323321    -0.05500
C745        C  0.17773863  0.24655906  0.28042090     0.00400
C746        C  0.15855334  0.26483759  0.29708656    -0.08100
C747        C  0.16622616  0.29400092  0.31000514     0.62300
H748        H  0.11499300  0.26935951  0.31470030     0.13000
H749        H  0.17602173  0.21320013  0.24777760     0.13000
C750        C  0.12181195  0.20009981  0.24056939     0.62500
F751        F  0.14489042  0.31398191  0.30302851    -0.22600
F752        F  0.19183021  0.30523042  0.29962420    -0.20000
F753        F  0.16737478  0.29156592  0.33979158    -0.19600
F754        F  0.09189183  0.19899105  0.23960903    -0.19700
F755        F  0.13234792  0.17251518  0.24578524    -0.20000
F756        F  0.13124949  0.20916633  0.21357979    -0.22700
C757        C  0.11188491  0.57282876  0.52316550    -0.05500
C758        C  0.11500680  0.59312083  0.50079356     0.00400
C759        C  0.09547573  0.59324278  0.47729507    -0.08200
C760        C  0.07322011  0.57257749  0.47702701    -0.05500
C761        C  0.06928509  0.55277662  0.49988648     0.00400
C762        C  0.08932642  0.55238083  0.52313479    -0.08100
C763        C  0.08796624  0.52976519  0.54698460     0.62300
H764        H  0.12719728  0.57339938  0.54089044     0.13000
H765        H  0.05799435  0.57241781  0.45924427     0.13000
C766        C  0.09727200  0.61582902  0.45329632     0.62500
F767        F  0.11197873  0.53092286  0.56487555    -0.22600
F768        F  0.08719145  0.50258930  0.53468991    -0.20000
F769        F  0.06361222  0.53390997  0.56395197    -0.19600
F770        F  0.12214411  0.61154412  0.43715501    -0.19700
F771        F  0.09776462  0.64333646  0.46500701    -0.20000
F772        F  0.07376332  0.61434824  0.43478734    -0.22700
C773        C  0.24688593  0.37013837  0.23889691    -0.05500
C774        C  0.27376518  0.38016581  0.24859099     0.00400
C775        C  0.29329882  0.35980741  0.26090645    -0.08200
C776        C  0.28548855  0.33007927  0.26233328    -0.05500
C777        C  0.25845989  0.31968532  0.25255358     0.00400
C778        C  0.23829378  0.34078212  0.24166017    -0.08100
C779        C  0.20711218  0.33448343  0.23351352     0.62300
H780        H  0.23214189  0.38570026  0.22920082     0.13000
H781        H  0.30082291  0.31461788  0.27104044     0.13000
C782        C  0.32219928  0.36965393  0.27298494     0.62500
F783        F  0.18918680  0.35646759  0.24326189    -0.22600
F784        F  0.19697090  0.30933688  0.24570883    -0.20000
F785        F  0.20482958  0.33290438  0.20377117    -0.19600
F786        F  0.31768804  0.39168480  0.29264874    -0.19700
F787        F  0.33976291  0.37970193  0.25084897    -0.20000
F788        F  0.33664232  0.34737642  0.28704927    -0.22700
C789        C  0.39138214  0.52881520  0.08760260    -0.05500
C790        C  0.37042174  0.50756146  0.08254940     0.00400
C791        C  0.37324539  0.48875301  0.05874850    -0.08200
C792        C  0.39834625  0.49068016  0.04156706    -0.05500
C793        C  0.42002433  0.51119249  0.04728674     0.00400
C794        C  0.41635388  0.53106839  0.07039665    -0.08100
C795        C  0.43914886  0.55360450  0.07803567     0.62300
H796        H  0.38846561  0.54301106  0.10594979     0.13000
H797        H  0.40143362  0.47584983  0.02377809     0.13000
C798        C  0.34960540  0.46719247  0.05138453     0.62500
F799        F  0.43233549  0.56818663  0.10323560    -0.22600
F800        F  0.44128726  0.57396805  0.05608759    -0.20000
F801        F  0.46572813  0.54032228  0.08210184    -0.19600
F802        F  0.32329311  0.48145760  0.04915215    -0.19700
F803        F  0.34767052  0.44623710  0.07275081    -0.20000
F804        F  0.35499453  0.45349861  0.02536880    -0.22700
C805        C  0.24889419  0.71997468  0.32974679    -0.05500
C806        C  0.24256664  0.74830949  0.32055654     0.00400
C807        C  0.23614256  0.76933448  0.34232238    -0.08200
C808        C  0.23440482  0.76045742  0.37160132    -0.05500
C809        C  0.24143740  0.73228440  0.38065542     0.00400
C810        C  0.25028446  0.71202323  0.35919858    -0.08100
C811        C  0.26335270  0.68262183  0.36640531     0.62300
H812        H  0.25421806  0.70397943  0.31351589     0.13000
H813        H  0.22821087  0.77617902  0.38781636     0.13000
C814        C  0.23264243  0.80163312  0.33726568     0.62500
F815        F  0.28294901  0.67429895  0.34525572    -0.22600
F816        F  0.24171635  0.66195975  0.36787527    -0.20000
F817        F  0.27838107  0.68335430  0.39223811    -0.19600
F818        F  0.20477465  0.80988335  0.34468909    -0.19700
F819        F  0.23783446  0.81007965  0.30932786    -0.20000
F820        F  0.25207265  0.81639816  0.35455567    -0.22700
C821        C  0.24748495  0.67878649  0.25239443    -0.05500
C822        C  0.27116626  0.69632038  0.24412482     0.00400
C823        C  0.29772757  0.68225924  0.23725306    -0.08200
C824        C  0.29806359  0.65166039  0.23421279    -0.05500
C825        C  0.27388313  0.63416895  0.24102533     0.00400
C826        C  0.24862083  0.64803098  0.25176315    -0.08100
C827        C  0.22300637  0.63045001  0.26255694     0.62300
H828        H  0.22817290  0.68948059  0.26027182     0.13000
H829        H  0.31762700  0.64092608  0.22692402     0.13000
C830        C  0.32599805  0.69896946  0.23471299     0.62500
F831        F  0.20037530  0.64794007  0.27161028    -0.22600
F832        F  0.23155109  0.61361698  0.28584652    -0.20000
F833        F  0.21287924  0.61273203  0.24080130    -0.19600
F834        F  0.33259316  0.71127350  0.26103314    -0.19700
F835        F  0.32382570  0.72052865  0.21418351    -0.20000
F836        F  0.34892164  0.68122470  0.22697240    -0.22700
C837        C  0.14765911  0.79353458  0.27062808    -0.05500
C838        C  0.13381919  0.76862879  0.28132432     0.00400
C839        C  0.15133879  0.74458338  0.28919755    -0.08200
C840        C  0.18182837  0.74608019  0.28533905    -0.05500
C841        C  0.19612427  0.77127082  0.27526909     0.00400
C842        C  0.17829583  0.79576522  0.26820356    -0.08100
C843        C  0.18946162  0.82545607  0.25946746     0.62300
H844        H  0.13434226  0.81224265  0.26550304     0.13000
H845        H  0.19484769  0.72716183  0.29015126     0.13000
C846        C  0.13778434  0.71732079  0.30178689     0.62500
F847        F  0.17839016  0.84592369  0.27826529    -0.22600
F848        F  0.18012891  0.83195751  0.23178268    -0.20000
F849        F  0.21910208  0.82780195  0.26018167    -0.19600
F850        F  0.11607854  0.70754403  0.28370893    -0.19700
F851        F  0.12608989  0.72321359  0.32866488    -0.20000
F852        F  0.15790687  0.69528403  0.30512346    -0.22700
C853        C  0.17255601  0.79072411  0.74835321    -0.05500
C854        C  0.18100752  0.76352946  0.73762305     0.00400
C855        C  0.15837618  0.74447584  0.72800818    -0.08200
C856        C  0.12908343  0.75375043  0.72950975    -0.05500
C857        C  0.12103625  0.78022485  0.74170056     0.00400
C858        C  0.14329148  0.79844597  0.75258304    -0.08100
C859        C  0.13743305  0.82535878  0.77044111     0.62300
H860        H  0.18918137  0.80563059  0.75551560     0.13000
H861        H  0.11204444  0.74041895  0.72052399     0.13000
C862        C  0.16371891  0.71477314  0.71525372     0.62500
F863        F  0.15665614  0.82654617  0.79337538    -0.22600
F864        F  0.10979713  0.82550771  0.78212991    -0.20000
F865        F  0.14129121  0.84977158  0.75341756    -0.19600
F866        F  0.18497492  0.70022740  0.73015597    -0.19700
F867        F  0.17140451  0.71772380  0.68654312    -0.20000
F868        F  0.13906485  0.69765572  0.71652099    -0.22700
C869        C  0.22303519  0.76526549  0.67818435    -0.05500
C870        C  0.22819576  0.73883979  0.69286163     0.00400
C871        C  0.23261480  0.71346292  0.67585120    -0.08200
C872        C  0.23104596  0.71561807  0.64544023    -0.05500
C873        C  0.22479018  0.74169167  0.63102950     0.00400
C874        C  0.22096352  0.76704929  0.64763794    -0.08100
C875        C  0.21407633  0.79568717  0.63303102     0.62300
H876        H  0.22053429  0.78470199  0.69094699     0.13000
H877        H  0.23339722  0.69612389  0.63264825     0.13000
C878        C  0.23688620  0.68300110  0.68771790     0.62500
F879        F  0.18848152  0.79335511  0.61766828    -0.22600
F880        F  0.23631303  0.80298601  0.61424093    -0.20000
F881        F  0.21094328  0.81786152  0.65282346    -0.19600
F882        F  0.23558474  0.68116139  0.71733392    -0.19700
F883        F  0.26357097  0.67261581  0.67880042    -0.20000
F884        F  0.21541459  0.66515023  0.67690730    -0.22700
C885        C  0.35606213  0.77809738  0.74838473    -0.05500
C886        C  0.36274838  0.77579948  0.71892171     0.00400
C887        C  0.34022975  0.76780229  0.69949373    -0.08200
C888        C  0.31161262  0.76447407  0.71013061    -0.05500
C889        C  0.30464920  0.76771633  0.73952508     0.00400
C890        C  0.32767224  0.77360525  0.75919487    -0.08100
C891        C  0.32314056  0.77476581  0.79161862     0.62300
H892        H  0.37337050  0.78392344  0.76304514     0.13000
H893        H  0.29426290  0.75900055  0.69538503     0.13000
C894        C  0.34633116  0.76110970  0.66791871     0.62500
F895        F  0.30464644  0.75301875  0.80060157    -0.22600
F896        F  0.31189142  0.80139092  0.79902636    -0.20000
F897        F  0.34898952  0.77108510  0.80639210    -0.19600
F898        F  0.37033811  0.74325383  0.66571195    -0.19700
F899        F  0.35124756  0.78638947  0.65261177    -0.20000
F900        F  0.32320503  0.74703089  0.65509244    -0.22700
C901        C  0.47491413  0.89296506  0.53819172    -0.05500
C902        C  0.49489301  0.89110972  0.56092607     0.00400
C903        C  0.51600388  0.91310944  0.56441932    -0.08200
C904        C  0.51557928  0.93690175  0.54539285    -0.05500
C905        C  0.49484728  0.93944734  0.52334090     0.00400
C906        C  0.47474732  0.91665529  0.51890433    -0.08100
C907        C  0.45405047  0.91664621  0.49343082     0.62300
H908        H  0.45910114  0.87577271  0.53594221     0.13000
H909        H  0.53088577  0.95442406  0.54834725     0.13000
C910        C  0.53811354  0.91230117  0.58876636     0.62500
F911        F  0.43962782  0.89047117  0.49096269    -0.22600
F912        F  0.46952759  0.92124957  0.46816594    -0.20000
F913        F  0.43340399  0.93811115  0.49656844    -0.19600
F914        F  0.55741046  0.88985327  0.58435609    -0.19700
F915        F  0.52424014  0.90848590  0.61506741    -0.20000
F916        F  0.55401121  0.93769240  0.59020428    -0.22700
C917        C  0.65900555  0.78722268  0.73847758    -0.05500
C918        C  0.67721397  0.77684862  0.71610011     0.00400
C919        C  0.66334224  0.76676317  0.69043208    -0.08200
C920        C  0.63278178  0.76609987  0.68920486    -0.05500
C921        C  0.61480988  0.77693134  0.71123666     0.00400
C922        C  0.62828238  0.78749203  0.73660966    -0.08100
C923        C  0.61060308  0.79881608  0.76182169     0.62300
H924        H  0.66902304  0.79466836  0.75814194     0.13000
H925        H  0.62264323  0.75800363  0.66971686     0.13000
C926        C  0.67844124  0.75815901  0.66253145     0.62500
F927        F  0.62799056  0.81057865  0.78312205    -0.22600
F928        F  0.59507509  0.77628164  0.77410662    -0.20000
F929        F  0.59173322  0.82017608  0.75247200    -0.19600
F930        F  0.67456016  0.72888167  0.65780439    -0.19700
F931        F  0.70749893  0.76410213  0.66221155    -0.20000
F932        F  0.66634145  0.77333917  0.63963427    -0.22700
C933        C  0.78053316  0.74951880  0.80749200    -0.05500
C934        C  0.75196044  0.74587427  0.79747755     0.00400
C935        C  0.72998989  0.73944225  0.81837252    -0.08200
C936        C  0.73786094  0.73404077  0.84749012    -0.05500
C937        C  0.76652495  0.73657784  0.85712996     0.00400
C938        C  0.78813213  0.74528979  0.83692622    -0.08100
C939        C  0.81903052  0.75078317  0.84665653     0.62300
H940        H  0.79706754  0.75551925  0.79189291     0.13000
H941        H  0.72142026  0.72745971  0.86298305     0.13000
C942        C  0.69801842  0.73856293  0.81110701     0.62500
F943        F  0.83575757  0.76280282  0.82476622    -0.22600
F944        F  0.83183789  0.72507090  0.85519947    -0.20000
F945        F  0.81893454  0.76982283  0.86965302    -0.19600
F946        F  0.69031693  0.71065606  0.80381773    -0.19700
F947        F  0.69152939  0.75725046  0.78872363    -0.20000
F948        F  0.68141654  0.74697987  0.83460249    -0.22700
C949        C  0.71937417  0.83691976  0.77168075    -0.05500
C950        C  0.71672090  0.82560932  0.74348529     0.00400
C951        C  0.70872309  0.84555693  0.72084559    -0.08200
C952        C  0.70273053  0.87469809  0.72770186    -0.05500
C953        C  0.70590251  0.88573368  0.75551529     0.00400
C954        C  0.71414777  0.86654305  0.77803368    -0.08100
C955        C  0.71704237  0.87747356  0.80870026     0.62300
H956        H  0.72542719  0.82220856  0.78895779     0.13000
H957        H  0.69563972  0.88941901  0.71074610     0.13000
C958        C  0.70667927  0.83899636  0.68881645     0.62500
F959        F  0.72612168  0.85588003  0.82751478    -0.22600
F960        F  0.69053605  0.88774343  0.81826712    -0.20000
F961        F  0.73713405  0.89970080  0.80940647    -0.19600
F962        F  0.67795883  0.84039611  0.68033491    -0.19700
F963        F  0.71754259  0.81255903  0.68146620    -0.20000
F964        F  0.72233353  0.85944008  0.67326686    -0.22700
C965        C  0.82370261  0.75552781  0.71531898    -0.05500
C966        C  0.80544938  0.77827547  0.72487188     0.00400
C967        C  0.81922276  0.80328429  0.73669537    -0.08200
C968        C  0.84955198  0.80343330  0.74011680    -0.05500
C969        C  0.86779293  0.78186607  0.72884813     0.00400
C970        C  0.85453906  0.75732226  0.71609152    -0.08100
C971        C  0.87266189  0.73346579  0.70277064     0.62300
H972        H  0.81359874  0.73616315  0.70697021     0.13000
H973        H  0.85944889  0.82218602  0.75009677     0.13000
C974        C  0.80439971  0.83171623  0.74423858     0.62500
F975        F  0.85562194  0.71283584  0.68938162    -0.22600
F976        F  0.88862833  0.71974166  0.72405511    -0.20000
F977        F  0.89123626  0.74505848  0.68221521    -0.19600
F978        F  0.80447067  0.83523950  0.77390941    -0.19700
F979        F  0.77645362  0.83378882  0.73436063    -0.20000
F980        F  0.81953542  0.85449672  0.73172639    -0.22700
C981        C  0.70731643  0.65227790  0.75490711    -0.05500
C982        C  0.73235460  0.63857489  0.76548995     0.00400
C983        C  0.75778921  0.65537790  0.76887165    -0.08200
C984        C  0.75715167  0.68539615  0.76218312    -0.05500
C985        C  0.73187701  0.69958886  0.75228854     0.00400
C986        C  0.70650517  0.68231263  0.74803726    -0.08100
C987        C  0.67821289  0.69469316  0.73666234     0.62300
H988        H  0.68800294  0.63917298  0.75243759     0.13000
H989        H  0.77667169  0.69815775  0.76470306     0.13000
C990        C  0.78551631  0.64139114  0.77965435     0.62500
F991        F  0.67920909  0.69586435  0.70686597    -0.22600
F992        F  0.67315072  0.72198140  0.74743351    -0.20000
F993        F  0.65480952  0.67759265  0.74461483    -0.19600
F994        F  0.79323937  0.61903403  0.76139340    -0.19700
F995        F  0.78128979  0.63041609  0.80723101    -0.20000
F996        F  0.80828640  0.66090134  0.78056162    -0.22700
C997        C  0.62671702  0.49787964  0.95372139    -0.05500
C998        C  0.62654828  0.51597507  0.92920724     0.00400
C999        C  0.60088507  0.53083660  0.92124967    -0.08200
C1000       C  0.57633019  0.52761640  0.93879286    -0.05500
C1001       C  0.57636178  0.50953796  0.96324608     0.00400
C1002       C  0.60184840  0.49437191  0.97110894    -0.08100
C1003       C  0.60295157  0.47517632  0.99784699     0.62300
H1004       H  0.64640685  0.48609074  0.95878340     0.13000
H1005       H  0.55645832  0.53884065  0.93317082     0.13000
C1006       C  0.59884623  0.54899573  0.89377065     0.62500
F1007       F  0.63061299  0.46458418  0.00282011    -0.22600
F1008       F  0.58458761  0.45177273  0.99450872    -0.20000
F1009       F  0.59450010  0.49085305  0.02184347    -0.19600
F1010       F  0.60665397  0.53251741  0.87010890    -0.19700
F1011       F  0.61699337  0.57269509  0.89569239    -0.20000
F1012       F  0.57098975  0.55921328  0.88909772    -0.22700
C1013       C  0.71191675  0.18343781  0.73141172    -0.05500
C1014       C  0.71618773  0.19872827  0.75728604     0.00400
C1015       C  0.71563434  0.18285728  0.78380220    -0.08200
C1016       C  0.71077514  0.15248440  0.78308469    -0.05500
C1017       C  0.70663542  0.13744348  0.75705658     0.00400
C1018       C  0.70690599  0.15328922  0.73079793    -0.08100
C1019       C  0.70114043  0.13840075  0.70223007     0.62300
H1020       H  0.71278111  0.19538028  0.71134573     0.13000
H1021       H  0.70959548  0.14016797  0.80305231     0.13000
C1022       C  0.71907856  0.19756274  0.81290598     0.62500
F1023       F  0.70307253  0.15742828  0.67904301    -0.22600
F1024       F  0.67354475  0.12665412  0.70242987    -0.20000
F1025       F  0.72121110  0.11653347  0.69812104    -0.19600
F1026       F  0.70117622  0.22145252  0.81463984    -0.19700
F1027       F  0.74745130  0.20610541  0.81673809    -0.20000
F1028       F  0.71192910  0.17914708  0.83556028    -0.22700
C1029       C  0.75067466  0.33931493  0.77608570    -0.05500
C1030       C  0.72526339  0.32400750  0.76868588     0.00400
C1031       C  0.69894403  0.33994726  0.76590619    -0.08200
C1032       C  0.69978243  0.37051152  0.76800522    -0.05500
C1033       C  0.72545026  0.38581107  0.77390699     0.00400
C1034       C  0.75113654  0.36981273  0.77911494    -0.08100
C1035       C  0.77864670  0.38486104  0.78879443     0.62300
H1036       H  0.77058163  0.32715380  0.77877998     0.13000
H1037       H  0.67992408  0.38286960  0.76573090     0.13000
C1038       C  0.66954062  0.32528784  0.76311231     0.62500
F1039       F  0.80099657  0.36540572  0.79371555    -0.22600
F1040       F  0.77344608  0.39960754  0.81424592    -0.20000
F1041       F  0.78757623  0.40428619  0.76773934    -0.19600
F1042       F  0.66790678  0.30156054  0.78129240    -0.19700
F1043       F  0.66480893  0.31668197  0.73502268    -0.20000
F1044       F  0.64720118  0.34382572  0.77073704    -0.22700
C1045       C  0.48001670  0.05654269  0.61910460    -0.05500
C1046       C  0.49822855  0.08051236  0.62308980     0.00400
C1047       C  0.51637186  0.09013053  0.60012954    -0.08200
C1048       C  0.51497026  0.07558732  0.57360937    -0.05500
C1049       C  0.49597849  0.05231913  0.56930094     0.00400
C1050       C  0.47871388  0.04197784  0.59253691    -0.08100
C1051       C  0.45939376  0.01552453  0.58954661     0.62300
H1052       H  0.46620357  0.04976828  0.63688644     0.13000
H1053       H  0.52818587  0.08286066  0.55557741     0.13000
C1054       C  0.53632502  0.11619108  0.60293103     0.62500
F1055       F  0.44829396  0.00659299  0.61597740    -0.22600
F1056       F  0.47518338  0.99277425  0.57813891    -0.20000
F1057       F  0.43629494  0.02182031  0.57157144    -0.19600
F1058       F  0.55848126  0.10981533  0.62198342    -0.19700
F1059       F  0.52091743  0.13991066  0.61275138    -0.20000
F1060       F  0.54889298  0.12380319  0.57674372    -0.22700
C1061       C  0.65560170  0.24214634  0.76190710    -0.05500
C1062       C  0.67208499  0.24532442  0.73640021     0.00400
C1063       C  0.65730504  0.24452920  0.70945801    -0.08200
C1064       C  0.62701227  0.23888620  0.70924022    -0.05500
C1065       C  0.61076674  0.23532552  0.73485602     0.00400
C1066       C  0.62530423  0.23738755  0.76165742    -0.08100
C1067       C  0.60887627  0.23374003  0.78989663     0.62300
H1068       H  0.66672814  0.24376972  0.78232037     0.13000
H1069       H  0.61564407  0.23707470  0.68886931     0.13000
C1070       C  0.67299036  0.24964893  0.68095199     0.62500
F1071       F  0.62684344  0.23658440  0.81365656    -0.22600
F1072       F  0.59628208  0.20656602  0.79105712    -0.20000
F1073       F  0.58743069  0.25460309  0.79175155    -0.19600
F1074       F  0.65611902  0.24161207  0.65762011    -0.19700
F1075       F  0.69833810  0.23380815  0.67977421    -0.20000
F1076       F  0.67946868  0.27870595  0.67790163    -0.22700
C1077       C  0.34798071  0.22061333  0.76711505    -0.05500
C1078       C  0.35839916  0.22664057  0.73923233     0.00400
C1079       C  0.33839886  0.23631530  0.71797157    -0.08200
C1080       C  0.30878435  0.23964361  0.72548332    -0.05500
C1081       C  0.29799212  0.23307424  0.75331652     0.00400
C1082       C  0.31845867  0.22426935  0.77487891    -0.08100
C1083       C  0.31117097  0.21884684  0.80647480     0.62300
H1084       H  0.36325736  0.21282224  0.78317514     0.13000
H1085       H  0.29349592  0.24667562  0.70915635     0.13000
C1086       C  0.34832411  0.24325834  0.68738094     0.62500
F1087       F  0.31106618  0.18934120  0.81178854    -0.22600
F1088       F  0.28485573  0.23023940  0.81460163    -0.20000
F1089       F  0.33198052  0.23155144  0.82381460    -0.19600
F1090       F  0.35881725  0.21854966  0.67426623    -0.19700
F1091       F  0.37002499  0.26391024  0.68812513    -0.20000
F1092       F  0.32592286  0.25395294  0.67050685    -0.22700
C1093       C  0.26516166  0.82693098  0.74147586    -0.05500
C1094       C  0.25902314  0.81092552  0.76690969     0.00400
C1095       C  0.25401390  0.82671619  0.79288931    -0.08200
C1096       C  0.25592633  0.85728294  0.79238917    -0.05500
C1097       C  0.26331240  0.87299945  0.76735538     0.00400
C1098       C  0.26763182  0.85759052  0.74132311    -0.08100
C1099       C  0.27519269  0.87360437  0.71363393     0.62300
H1100       H  0.26792366  0.81516541  0.72147943     0.13000
H1101       H  0.25273735  0.86921476  0.81226659     0.13000
C1102       C  0.24785691  0.81248815  0.82194446     0.62500
F1103       F  0.27860045  0.85491122  0.69057019    -0.22600
F1104       F  0.30084043  0.88870237  0.71716287    -0.20000
F1105       F  0.25322489  0.89290125  0.70694168    -0.19600
F1106       F  0.26064819  0.82800474  0.84404553    -0.19700
F1107       F  0.25882287  0.78477523  0.82348914    -0.20000
F1108       F  0.21825799  0.81184945  0.82668753    -0.22700
C1109       C  0.26484259  0.13594899  0.76390820    -0.05500
C1110       C  0.25290555  0.12448537  0.78940108     0.00400
C1111       C  0.23960484  0.14407220  0.80906973    -0.08200
C1112       C  0.24112896  0.17421983  0.80362561    -0.05500
C1113       C  0.25208739  0.18595419  0.77761676     0.00400
C1114       C  0.26311316  0.16580159  0.75668342    -0.08100
C1115       C  0.27142297  0.17326057  0.72571317     0.62300
H1116       H  0.27473458  0.12106118  0.74874769     0.13000
H1117       H  0.23261578  0.18889835  0.81973555     0.13000
C1118       C  0.22209177  0.13385127  0.83508233     0.62500
F1119       F  0.30130671  0.17409459  0.72332214    -0.22600
F1120       F  0.25990397  0.19907896  0.71627592    -0.20000
F1121       F  0.26106038  0.15219505  0.70720311    -0.19600
F1122       F  0.24012231  0.13035074  0.85865718    -0.19700
F1123       F  0.20807365  0.10802184  0.82935247    -0.20000
F1124       F  0.20089155  0.15389086  0.84217703    -0.22700
C1125       C  0.23307216  0.29149031  0.34348680    -0.05500
C1126       C  0.22474688  0.26489314  0.33099861     0.00400
C1127       C  0.21611435  0.24207256  0.35030219    -0.08200
C1128       C  0.21376576  0.24766213  0.38027126    -0.05500
C1129       C  0.22074736  0.27455454  0.39207749     0.00400
C1130       C  0.23122223  0.29670174  0.37352663    -0.08100
C1131       C  0.24093751  0.32560649  0.38563883     0.62300
H1132       H  0.24051707  0.30869437  0.32931619     0.13000
H1133       H  0.20558356  0.23110381  0.39484176     0.13000
C1134       C  0.21073617  0.21137808  0.34037781     0.62500
F1135       F  0.25284257  0.34335004  0.36448891    -0.22600
F1136       F  0.26175858  0.32096658  0.40665856    -0.20000
F1137       F  0.21763232  0.33999224  0.39774566    -0.19600
F1138       F  0.23296631  0.20277544  0.32251187    -0.19700
F1139       F  0.18456807  0.20965978  0.32617703    -0.20000
F1140       F  0.20978479  0.19198908  0.36333152    -0.22700
C1141       C  0.21109664  0.28936811  0.65737318    -0.05500
C1142       C  0.20764314  0.26389480  0.64122684     0.00400
C1143       C  0.20861711  0.23687959  0.65570478    -0.08200
C1144       C  0.21305802  0.23629099  0.68584908    -0.05500
C1145       C  0.21693177  0.26164336  0.70219387     0.00400
C1146       C  0.21596907  0.28885694  0.68761119    -0.08100
C1147       C  0.21876802  0.31738901  0.70357752     0.62300
H1148       H  0.20955314  0.30986915  0.64597377     0.13000
H1149       H  0.21320172  0.21571789  0.69700386     0.14800
C1150       C  0.20413249  0.20880627  0.63943118     0.62500
F1151       F  0.21150042  0.34075506  0.68613592    -0.22600
F1152       F  0.24696686  0.32133516  0.71262622    -0.20000
F1153       F  0.20048541  0.31772671  0.72721542    -0.19600
F1154       F  0.22534457  0.20601202  0.61844948    -0.19700
F1155       F  0.17715314  0.20894169  0.62641275    -0.20000
F1156       F  0.20563890  0.18483921  0.65752707    -0.22700
C1157       C  0.02403883  0.40856717  0.48598349    -0.05500
C1158       C  0.02627199  0.42784042  0.50928442     0.00400
C1159       C  0.03942698  0.41815393  0.53542368    -0.08200
C1160       C  0.05243703  0.39059754  0.53592078    -0.05500
C1161       C  0.05163380  0.37220169  0.51190014     0.00400
C1162       C  0.03534166  0.38045881  0.48730417    -0.08100
C1163       C  0.02911595  0.36052743  0.46206971     0.62300
H1164       H  0.01279555  0.41532766  0.46650585     0.13000
H1165       H  0.06456127  0.38375920  0.55476157     0.13000
C1166       C  0.04065909  0.43663624  0.56248492     0.62500
F1167       F  0.00022492  0.36294050  0.45429727    -0.22600
F1168       F  0.03417536  0.33173010  0.46873922    -0.20000
F1169       F  0.04612190  0.36852081  0.43868054    -0.19600
F1170       F  0.01286777  0.44140019  0.57272067    -0.19700
F1171       F  0.05379386  0.46280691  0.55636429    -0.20000
F1172       F  0.05632557  0.42344692  0.58442648    -0.22700
C1173       C  0.97785197  0.92118492  0.61602560    -0.05500
C1174       C  0.99527055  0.93537024  0.63635802     0.00400
C1175       C  0.01119317  0.96027904  0.62815875    -0.08200
C1176       C  0.00877407  0.97038404  0.59955698    -0.05500
C1177       C  0.99097656  0.95641549  0.57936466     0.00400
C1178       C  0.97537599  0.93121699  0.58751239    -0.08100
C1179       C  0.95679191  0.91444549  0.56624349     0.62300
H1180       H  0.96625119  0.90185879  0.62267277     0.13000
H1181       H  0.02057392  0.98955056  0.59276795     0.13000
C1182       C  0.03002081  0.97647252  0.64956482     0.62500
F1183       F  0.94767399  0.88816173  0.57762818    -0.22600
F1184       F  0.97250737  0.90876218  0.54138945    -0.20000
F1185       F  0.93235630  0.93037549  0.55928248    -0.19600
F1186       F  0.05325400  0.95942463  0.65775728    -0.19700
F1187       F  0.01385503  0.98350218  0.67375953    -0.20000
F1188       F  0.04095604  0.00189446  0.63783305    -0.22700
C1189       C  0.96047569  0.05269397  0.41686598    -0.05500
C1190       C  0.98125347  0.03055516  0.41835115     0.00400
C1191       C  0.99973890  0.02541023  0.39443646    -0.08200
C1192       C  0.99759477  0.04374737  0.37020741    -0.05500
C1193       C  0.97788353  0.06687059  0.36934858     0.00400
C1194       C  0.95871741  0.07146262  0.39294844    -0.08100
C1195       C  0.93773285  0.09687567  0.39397456     0.62300
H1196       H  0.94646987  0.05605787  0.43539028     0.13000
H1197       H  0.01214194  0.04085941  0.35201124     0.13000
C1198       C  0.02127920  0.00056065  0.39420236     0.62500
F1199       F  0.92412596  0.09905255  0.42061065    -0.22600
F1200       F  0.91640650  0.09342714  0.37337265    -0.20000
F1201       F  0.95243408  0.12254188  0.38897153    -0.19600
F1202       F  0.00704815  0.97497719  0.40074404    -0.19700
F1203       F  0.04288506  0.00537330  0.41426825    -0.20000
F1204       F  0.03437526  0.99745338  0.36741681    -0.22700
C1205       C  0.97438120  0.89057916  0.46806139    -0.05500
C1206       C  0.99813276  0.90950164  0.46503110     0.00400
C1207       C  0.02390747  0.89928907  0.45137733    -0.08200
C1208       C  0.02354496  0.87162245  0.43886628    -0.05500
C1209       C  0.99877927  0.85400565  0.43976142     0.00400
C1210       C  0.97455858  0.86269714  0.45637071    -0.08100
C1211       C  0.94823433  0.84368812  0.46186615     0.62300
H1212       H  0.95518102  0.89762320  0.47964808     0.13000
H1213       H  0.04204344  0.86441379  0.42639583     0.13000
C1214       C  0.05132245  0.91746411  0.44854906     0.62500
F1215       F  0.94089825  0.84460448  0.49088910    -0.22600
F1216       F  0.95318620  0.81500698  0.45492607    -0.20000
F1217       F  0.92509818  0.85396848  0.44582513    -0.19600
F1218       F  0.06214445  0.92361289  0.47568983    -0.19700
F1219       F  0.04530579  0.94293306  0.43391186    -0.20000
F1220       F  0.07296012  0.90326766  0.43337303    -0.22700
C1221       C  0.12833030  0.20606706  0.73928484    -0.05500
C1222       C  0.11019713  0.23035868  0.73563296     0.00400
C1223       C  0.12324378  0.25820898  0.73611878    -0.08200
C1224       C  0.15360731  0.26048387  0.74059556    -0.05500
C1225       C  0.17178141  0.23615464  0.74435453     0.00400
C1226       C  0.15870865  0.20829899  0.74270274    -0.08100
C1227       C  0.17541320  0.18010062  0.74208987     0.62300
H1228       H  0.11871120  0.18466753  0.73810929     0.13000
H1229       H  0.16341653  0.28163505  0.74151973     0.13000
C1230       C  0.10551136  0.28551446  0.73141320     0.62500
F1231       F  0.16729643  0.16438862  0.71802551    -0.22600
F1232       F  0.16917369  0.16408062  0.76667718    -0.20000
F1233       F  0.20479691  0.18419397  0.74031450    -0.19600
F1234       F  0.12290183  0.30985257  0.72891724    -0.19700
F1235       F  0.08708918  0.28953748  0.75465011    -0.20000
F1236       F  0.08946459  0.28329930  0.70628891    -0.22700
C1237       C  0.84183554  0.22053015  0.71949955    -0.05500
C1238       C  0.85936273  0.24545390  0.71824657     0.00400
C1239       C  0.84600086  0.27287881  0.72122731    -0.08200
C1240       C  0.81559460  0.27432891  0.72521850    -0.05500
C1241       C  0.79802451  0.24938227  0.72739892     0.00400
C1242       C  0.81152073  0.22183158  0.72446655    -0.08100
C1243       C  0.79438044  0.19375029  0.72580396     0.62300
H1244       H  0.85232300  0.19974471  0.71663354     0.13000
H1245       H  0.80534361  0.29519763  0.72779941     0.13000
C1246       C  0.86376371  0.30050841  0.71990686     0.62500
F1247       F  0.81087231  0.17032450  0.71697827    -0.22600
F1248       F  0.77055554  0.19535593  0.70792206    -0.20000
F1249       F  0.78532279  0.18833854  0.75376092    -0.19600
F1250       F  0.87879193  0.30196749  0.69401940    -0.19700
F1251       F  0.88327415  0.30079720  0.74255238    -0.20000
F1252       F  0.84652562  0.32499245  0.72198471    -0.22700
C1253       C  0.95983438  0.09797341  0.57929527    -0.05500
C1254       C  0.98249571  0.11786821  0.57544199     0.00400
C1255       C  0.00180448  0.11484268  0.55187296    -0.08200
C1256       C  0.99856982  0.09089554  0.53362860    -0.05500
C1257       C  0.97718508  0.06974068  0.53858583     0.00400
C1258       C  0.95696018  0.07354128  0.56151623    -0.08100
C1259       C  0.93345177  0.05141752  0.56838235     0.62300
H1260       H  0.94509565  0.10113453  0.59727898     0.13000
H1261       H  0.01371674  0.08781676  0.51596619     0.13000
C1262       C  0.02600733  0.13643676  0.54617041     0.62500
F1263       F  0.91752079  0.05887303  0.59265043    -0.22600
F1264       F  0.94586576  0.02460499  0.57360893    -0.20000
F1265       F  0.91440502  0.04952047  0.54541680    -0.19600
F1266       F  0.04725718  0.13334890  0.56697257    -0.19700
F1267       F  0.01521387  0.16438611  0.54684079    -0.20000
F1268       F  0.03875068  0.13225495  0.51937026    -0.22700
C1269       C  0.35083640  0.22442448  0.30627488    -0.05500
C1270       C  0.36917812  0.23991501  0.28718399     0.00400
C1271       C  0.35600297  0.25627678  0.26464037    -0.08200
C1272       C  0.32533720  0.25626660  0.26204846    -0.05500
C1273       C  0.30716958  0.24051218  0.28097117     0.00400
C1274       C  0.32022031  0.22470703  0.30381484    -0.08100
C1275       C  0.30191132  0.20890889  0.32602602     0.62300
H1276       H  0.36079815  0.21225131  0.32368950     0.13000
H1277       H  0.31513293  0.26847397  0.24481411     0.13000
C1278       C  0.37394141  0.27430105  0.24374750     0.62500
F1279       F  0.31861350  0.19622127  0.34748164    -0.22600
F1280       F  0.28629631  0.18729388  0.31266650    -0.20000
F1281       F  0.28318117  0.22827453  0.33905280    -0.19600
F1282       F  0.38977555  0.25619417  0.22602847    -0.19700
F1283       F  0.39256719  0.29216583  0.25881291    -0.20000
F1284       F  0.35672064  0.29167907  0.22633210    -0.22700
C1285       C  0.50281995  0.12568174  0.47625863    -0.05500
C1286       C  0.49178560  0.10454203  0.45759382     0.00400
C1287       C  0.48184950  0.11237743  0.42975432    -0.08200
C1288       C  0.48313280  0.14162217  0.42149081    -0.05500
C1289       C  0.49464450  0.16273411  0.43991664     0.00400
C1290       C  0.50455669  0.15490871  0.46773021    -0.08100
C1291       C  0.51694197  0.17737973  0.48801648     0.62300
H1292       H  0.51041328  0.11899833  0.49742940     0.13000
H1293       H  0.47617827  0.14815074  0.40006087     0.13000
C1294       C  0.47146012  0.08976396  0.40842380     0.62500
F1295       F  0.52387757  0.16555408  0.51470613    -0.22600
F1296       F  0.49680803  0.19918048  0.49226742    -0.20000
F1297       F  0.54186285  0.18915467  0.47611861    -0.19600
F1298       F  0.44721678  0.07579656  0.41926739    -0.19700
F1299       F  0.49322285  0.06966185  0.40378169    -0.20000
F1300       F  0.46418172  0.10196407  0.38199029    -0.22700
C1301       C  0.67338139  0.21804690  0.26854682    -0.05500
C1302       C  0.68068708  0.24480100  0.25561934     0.00400
C1303       C  0.65727611  0.26256443  0.24579924    -0.08200
C1304       C  0.62837937  0.25535768  0.25330568    -0.05500
C1305       C  0.62154866  0.23016501  0.26879526     0.00400
C1306       C  0.64428777  0.21016870  0.27479684    -0.08100
C1307       C  0.63781578  0.18000851  0.28639850     0.62300
H1308       H  0.69069759  0.20320278  0.27392830     0.13000
H1309       H  0.61087139  0.27008658  0.24794097     0.13000
C1310       C  0.66211087  0.28875743  0.22670124     0.62500
F1311       F  0.66209522  0.16234237  0.28553215    -0.22600
F1312       F  0.61651643  0.16727699  0.26972043    -0.20000
F1313       F  0.62845833  0.18132952  0.31472776    -0.19600
F1314       F  0.68225969  0.28236690  0.20553859    -0.19700
F1315       F  0.67142303  0.31157471  0.24336309    -0.20000
F1316       F  0.63686013  0.29720060  0.21282549    -0.22700
C1317       C  0.81286086  0.23721574  0.29431094    -0.05500
C1318       C  0.80648855  0.25310307  0.26892776     0.00400
C1319       C  0.83074208  0.26252801  0.25179401    -0.08200
C1320       C  0.85901239  0.25309345  0.25870637    -0.05500
C1321       C  0.86485666  0.23660232  0.28329721     0.00400
C1322       C  0.84159349  0.22982638  0.30234943    -0.08100
C1323       C  0.84721031  0.21648262  0.33187839     0.62300
H1324       H  0.79514216  0.23085061  0.30828217     0.13000
H1325       H  0.87712840  0.25870591  0.24480452     0.13000
C1326       C  0.82805408  0.28526916  0.22843540     0.62500
F1327       F  0.82245504  0.21628816  0.34890744    -0.22600
F1328       F  0.86812968  0.23246042  0.34607842    -0.20000
F1329       F  0.85665756  0.18826127  0.32910296    -0.19600
F1330       F  0.81356115  0.30841185  0.24000646    -0.19700
F1331       F  0.81370214  0.27453685  0.20474456    -0.20000
F1332       F  0.85474086  0.29536182  0.21891498    -0.22700
C1333       C  0.56414368  0.49162328  0.12467157    -0.05500
C1334       C  0.57095634  0.51965602  0.13386207     0.00400
C1335       C  0.55677732  0.54369238  0.12135914    -0.08200
C1336       C  0.54004118  0.53931586  0.09667362    -0.05500
C1337       C  0.53588138  0.51157301  0.08496877     0.00400
C1338       C  0.54623621  0.48691631  0.10059597    -0.08100
C1339       C  0.53948359  0.45585848  0.09201582     0.62300
H1340       H  0.57467608  0.47345742  0.13522439     0.13000
H1341       H  0.53060937  0.55813909  0.08618340     0.13000
C1342       C  0.55872988  0.57431002  0.13296816     0.62500
F1343       F  0.54956103  0.43603667  0.11222677    -0.22600
F1344       F  0.55251514  0.44949351  0.06583692    -0.20000
F1345       F  0.50976609  0.45215191  0.08998275    -0.19600
F1346       F  0.57359832  0.59153560  0.11337598    -0.19700
F1347       F  0.57238648  0.57574352  0.15950199    -0.20000
F1348       F  0.53101713  0.58528833  0.13647230    -0.22700
C1349       C  0.73273031  0.38359902  0.24844999    -0.05500
C1350       C  0.72084585  0.39325327  0.22251528     0.00400
C1351       C  0.71253603  0.37245626  0.20161659    -0.08200
C1352       C  0.71629004  0.34253047  0.20778995    -0.05500
C1353       C  0.72861137  0.33243785  0.23391030     0.00400
C1354       C  0.73707541  0.35393910  0.25458073    -0.08100
C1355       C  0.75274713  0.34656545  0.28230416     0.62300
H1356       H  0.73852715  0.39988730  0.26417159     0.13000
H1357       H  0.70993636  0.32680817  0.19183497     0.13000
C1358       C  0.70090991  0.38189464  0.17237098     0.62500
F1359       F  0.76263674  0.37087574  0.29666129    -0.22600
F1360       F  0.77663788  0.33009628  0.27572142    -0.20000
F1361       F  0.73440313  0.33202364  0.30094499    -0.19600
F1362       F  0.71973511  0.40165554  0.15981829    -0.19700
F1363       F  0.67397048  0.39459416  0.17560663    -0.20000
F1364       F  0.69803760  0.35875399  0.15368177    -0.22700
C1365       C  0.75826793  0.75317362  0.11362440    -0.05500
C1366       C  0.77426793  0.72817518  0.10789290     0.00400
C1367       C  0.79099279  0.71617532  0.13101321    -0.08200
C1368       C  0.78832069  0.72808620  0.15919857    -0.05500
C1369       C  0.77006162  0.75168725  0.16558360     0.00400
C1370       C  0.75763082  0.76632154  0.14106687    -0.08100
C1371       C  0.74619900  0.79696501  0.14052686     0.62300
H1372       H  0.74685629  0.76354379  0.09587620     0.13000
H1373       H  0.80113091  0.71915547  0.17646809     0.13000
C1374       C  0.81216183  0.69136412  0.12650122     0.62500
F1375       F  0.75955823  0.81226114  0.11834486    -0.22600
F1376       F  0.75220501  0.81146967  0.16531278    -0.20000
F1377       F  0.71665916  0.79694833  0.13549240    -0.19600
F1378       F  0.82801288  0.69566732  0.10140825    -0.19700
F1379       F  0.79724297  0.66549192  0.12497910    -0.20000
F1380       F  0.83169307  0.68909718  0.14911443    -0.22700
C1381       C  0.76907573  0.68914323  0.21321305    -0.05500
C1382       C  0.74398406  0.70643971  0.21007440     0.00400
C1383       C  0.71750260  0.69180418  0.20483193    -0.08200
C1384       C  0.71681828  0.66124303  0.20418432    -0.05500
C1385       C  0.74196540  0.64409391  0.20628895     0.00400
C1386       C  0.76882512  0.65849737  0.21031009    -0.08100
C1387       C  0.79723896  0.64195641  0.21017788     0.62300
H1388       H  0.78930389  0.69989228  0.21740911     0.13000
H1389       H  0.69631482  0.65037944  0.20085307     0.13000
C1390       C  0.69039333  0.70827743  0.19742710     0.62500
F1391       F  0.82093915  0.66034716  0.21117162    -0.22600
F1392       F  0.79937735  0.62578004  0.18517574    -0.20000
F1393       F  0.79853685  0.62376031  0.23393536    -0.19600
F1394       F  0.69566998  0.72403552  0.17249116    -0.19700
F1395       F  0.68309794  0.72620462  0.22004349    -0.20000
F1396       F  0.66697967  0.69028678  0.19220489    -0.22700
C1397       C  0.83577657  0.79694297  0.23581641    -0.05500
C1398       C  0.81966356  0.77371675  0.24817647     0.00400
C1399       C  0.83643004  0.75232470  0.26385355    -0.08200
C1400       C  0.86626894  0.75726163  0.26916227    -0.05500
C1401       C  0.88152371  0.78050129  0.25710374     0.00400
C1402       C  0.86612351  0.80048153  0.23975904    -0.08100
C1403       C  0.88187099  0.82593169  0.22605816     0.62300
H1404       H  0.82458127  0.81330080  0.22348797     0.13000
H1405       H  0.87822337  0.74218712  0.28273217     0.13000
C1406       C  0.82588401  0.72313730  0.27496249     0.62500
F1407       F  0.86373312  0.84250304  0.20880589    -0.22600
F1408       F  0.90436999  0.81583512  0.20902024    -0.20000
F1409       F  0.89305553  0.84351508  0.24741560    -0.19600
F1410       F  0.79995360  0.71484010  0.26356242    -0.19700
F1411       F  0.82367285  0.72383859  0.30477974    -0.20000
F1412       F  0.84563654  0.70180331  0.26751953    -0.22700
C1413       C  0.77483006  0.27156850  0.85678181    -0.05500
C1414       C  0.75128990  0.28193259  0.87307522     0.00400
C1415       C  0.72522662  0.28880439  0.85845494    -0.08200
C1416       C  0.72400663  0.28539142  0.82805273    -0.05500
C1417       C  0.74815784  0.27656668  0.81139439     0.00400
C1418       C  0.77427158  0.26979795  0.82638167    -0.08100
C1419       C  0.80257282  0.26243190  0.81141549     0.62300
H1420       H  0.79467858  0.26608494  0.86808944     0.13000
H1421       H  0.70387963  0.28961294  0.81702568     0.13000
C1422       C  0.69907918  0.30035520  0.87466567     0.62500
F1423       F  0.82599170  0.27265789  0.82703927    -0.22600
F1424       F  0.80405008  0.27523902  0.78455468    -0.20000
F1425       F  0.80530214  0.23272012  0.80899932    -0.19600
F1426       F  0.70662218  0.32510171  0.88958993    -0.19700
F1427       F  0.68919715  0.27961963  0.89396706    -0.20000
F1428       F  0.67650081  0.30731977  0.85618439    -0.22700
C1429       C  0.77103785  0.30870963  0.13965206    -0.05500
C1430       C  0.75708881  0.28710752  0.12361258     0.00400
C1431       C  0.73932894  0.26700972  0.13855052    -0.08200
C1432       C  0.73799200  0.26807268  0.16911900    -0.05500
C1433       C  0.75315775  0.28880046  0.18563972     0.00400
C1434       C  0.76906535  0.31054502  0.17007572    -0.08100
C1435       C  0.78502636  0.33606070  0.18300373     0.62300
H1436       H  0.78432403  0.32436054  0.12807875     0.13000
H1437       H  0.72515527  0.25209953  0.18047983     0.13000
C1438       C  0.72256529  0.24394824  0.12241817     0.62500
F1439       F  0.81434243  0.33366446  0.17701873    -0.22600
F1440       F  0.78162803  0.33843773  0.21224728    -0.20000
F1441       F  0.77481690  0.36142960  0.17058170    -0.19600
F1442       F  0.74133710  0.22749459  0.10589285    -0.19700
F1443       F  0.70234707  0.25704622  0.10461576    -0.20000
F1444       F  0.70786907  0.22547190  0.14103830    -0.22700
C1445       C  0.56824957  0.99565428  0.86313558    -0.05500
C1446       C  0.54916439  0.00842085  0.84315435     0.00400
C1447       C  0.52272860  0.02058523  0.85262648    -0.08200
C1448       C  0.51613958  0.01947686  0.88227638    -0.05500
C1449       C  0.53511804  0.00637987  0.90210686     0.00400
C1450       C  0.56164817  0.99437778  0.89266934    -0.08100
C1451       C  0.58320125  0.98113957  0.91377711     0.62300
H1452       H  0.58865817  0.98698338  0.85538609     0.13000
H1453       H  0.49592071  0.02844187  0.89019853     0.13000
C1454       C  0.50150440  0.03398275  0.83140492     0.62500
F1455       F  0.60897910  0.97366323  0.90032026    -0.22600
F1456       F  0.57161813  0.95634397  0.92608319    -0.20000
F1457       F  0.58950032  0.00080704  0.93533110    -0.19600
F1458       F  0.49422908  0.01384599  0.81061572    -0.19700
F1459       F  0.51398633  0.05781225  0.81810247    -0.20000
F1460       F  0.47623387  0.04293009  0.84492309    -0.22700
C1461       C  0.41003659  0.97447930  0.95383974    -0.05500
C1462       C  0.42429402  0.00146498  0.95368976     0.00400
C1463       C  0.41053309  0.02569756  0.94030916    -0.08200
C1464       C  0.38388475  0.02131135  0.92632763    -0.05500
C1465       C  0.37090784  0.99390904  0.92500187     0.00400
C1466       C  0.38334103  0.97035597  0.94013523    -0.08100
C1467       C  0.36971567  0.94044296  0.94194227     0.62300
H1468       H  0.41999965  0.95605635  0.96454930     0.13000
H1469       H  0.37380557  0.03900729  0.91461781     0.13000
C1470       C  0.42409436  0.05573245  0.93919942     0.62500
F1471       F  0.37165311  0.92993508  0.96996642    -0.22600
F1472       F  0.38451938  0.92187542  0.92376583    -0.20000
F1473       F  0.34067421  0.94055105  0.93453444    -0.19600
F1474       F  0.45077608  0.05449748  0.92549234    -0.19700
F1475       F  0.42738443  0.06622481  0.96694626    -0.20000
F1476       F  0.40709141  0.07537075  0.92410141    -0.22700
C1477       C  0.73942386  0.15348351  0.22636715    -0.05500
C1478       C  0.71490744  0.14717011  0.20989479     0.00400
C1479       C  0.69573730  0.17033499  0.20270296    -0.08200
C1480       C  0.70329677  0.19911490  0.21020496    -0.05500
C1481       C  0.72804589  0.20565584  0.22671641     0.00400
C1482       C  0.74603699  0.18188616  0.23552939    -0.08100
C1483       C  0.77161080  0.18554263  0.25557225     0.62300
H1484       H  0.75372757  0.13568769  0.23188087     0.13000
H1485       H  0.68930663  0.21682966  0.20374579     0.13000
C1486       C  0.66631514  0.16477381  0.18912727     0.62500
F1487       F  0.78247937  0.15926256  0.26528514    -0.22600
F1488       F  0.76293836  0.20079363  0.27955321    -0.20000
F1489       F  0.79378591  0.19970352  0.24130222    -0.19600
F1490       F  0.65272538  0.14197993  0.20321664    -0.19700
F1491       F  0.66942074  0.15830200  0.16019979    -0.20000
F1492       F  0.64836378  0.18874337  0.19122899    -0.22700
C1493       C  0.74470360  0.88586858  0.23367025    -0.05500
C1494       C  0.72607559  0.89517705  0.21148671     0.00400
C1495       C  0.70997519  0.87363271  0.19674234    -0.08200
C1496       C  0.71733048  0.84415797  0.20049158    -0.05500
C1497       C  0.73756895  0.83438163  0.22102552     0.00400
C1498       C  0.74940562  0.85590055  0.23969313    -0.08100
C1499       C  0.76598782  0.84752710  0.26653296     0.62300
H1500       H  0.75608163  0.90221469  0.24592327     0.13000
H1501       H  0.70687406  0.82864062  0.18700366     0.13000
C1502       C  0.68385655  0.88035674  0.17786550     0.62500
F1503       F  0.77092806  0.87107196  0.28426416    -0.22600
F1504       F  0.79240431  0.83609018  0.25881797    -0.20000
F1505       F  0.75020485  0.82740076  0.28220935    -0.19600
F1506       F  0.69037221  0.87425960  0.14934649    -0.19700
F1507       F  0.67473672  0.90879748  0.17991664    -0.20000
F1508       F  0.66076712  0.86327426  0.18657979    -0.22700
C1509       C  0.63027970  0.98362468  0.04642192    -0.05500
C1510       C  0.64779998  0.00758186  0.03953756     0.00400
C1511       C  0.63804170  0.02785315  0.01857811    -0.08200
C1512       C  0.60966435  0.02527202  0.00793713    -0.05500
C1513       C  0.59150284  0.00215592  0.01603743     0.00400
C1514       C  0.60233415  0.98028822  0.03488343    -0.08100
C1515       C  0.58426530  0.95423228  0.04411981     0.62300
H1516       H  0.63800358  0.96817092  0.06229165     0.13000
H1517       H  0.60171024  0.04142806  0.99278469     0.13000
C1518       C  0.65656693  0.05229947  0.00651411     0.62500
F1519       F  0.59815177  0.93750603  0.06482838    -0.22600
F1520       F  0.57913549  0.93673182  0.02050991    -0.20000
F1521       F  0.55817125  0.96337082  0.05577379    -0.19600
F1522       F  0.68549184  0.04971349  0.01391231    -0.19700
F1523       F  0.64612169  0.07849713  0.01648922    -0.20000
F1524       F  0.65504769  0.05225849  0.97662467    -0.22700
C1525       C  0.90076662  0.53721716  0.97979408    -0.05500
C1526       C  0.91279240  0.53780293  0.00775954     0.00400
C1527       C  0.89753428  0.55269164  0.03001364    -0.08200
C1528       C  0.87222159  0.56810544  0.02262282    -0.05500
C1529       C  0.86113967  0.56840246  0.99436071     0.00400
C1530       C  0.87470271  0.55128855  0.97294920    -0.08100
C1531       C  0.86261949  0.54720532  0.94270652     0.62300
H1532       H  0.91169069  0.52523672  0.96288040     0.13000
H1533       H  0.86142056  0.58104135  0.03883622     0.13000
C1534       C  0.90773853  0.55314129  0.06126787     0.62500
F1535       F  0.86714379  0.51900310  0.93371787    -0.22600
F1536       F  0.87670290  0.56573153  0.92373132    -0.20000
F1537       F  0.83306632  0.55220662  0.94151893    -0.19600
F1538       F  0.93523391  0.56498327  0.06281594    -0.19700
F1539       F  0.90798158  0.52524535  0.07235998    -0.20000
F1540       F  0.88968859  0.56951860  0.07871640    -0.22700
C1541       C  0.91294950  0.38162379  0.02874492    -0.05500
C1542       C  0.92022150  0.36415135  0.00511313     0.00400
C1543       C  0.94375726  0.37182568  0.98705731    -0.08200
C1544       C  0.95808890  0.39810310  0.99219431    -0.05500
C1545       C  0.94975716  0.41660280  0.01484097     0.00400
C1546       C  0.92740105  0.40779766  0.03415660    -0.08100
C1547       C  0.91797593  0.42606691  0.05975484     0.62300
H1548       H  0.89496576  0.37505861  0.04238648     0.13000
H1549       H  0.97573641  0.40465100  0.97810280     0.13000
C1550       C  0.95387104  0.35224137  0.96275227     0.62500
F1551       F  0.89432243  0.41422206  0.07404927    -0.22600
F1552       F  0.91024883  0.45353604  0.05043938    -0.20000
F1553       F  0.94045164  0.42791918  0.07941194    -0.19600
F1554       F  0.93328236  0.35147262  0.94112132    -0.19700
F1555       F  0.95825029  0.32449361  0.97332946    -0.20000
F1556       F  0.97970130  0.36176875  0.95066531    -0.22700
C1557       C  0.21667519  0.72796525  0.15410792    -0.05500
C1558       C  0.24092613  0.72832540  0.13537435     0.00400
C1559       C  0.26849122  0.73451014  0.14745352    -0.08200
C1560       C  0.27055077  0.74001443  0.17748877    -0.05500
C1561       C  0.24649789  0.73887319  0.19625514     0.00400
C1562       C  0.21886796  0.73325059  0.18415257    -0.08100
C1563       C  0.19164461  0.73299988  0.20261479     0.62300
H1564       H  0.19559256  0.72358721  0.14486459     0.13000
H1565       H  0.29110506  0.74630439  0.18644918     0.13000
C1566       C  0.29582490  0.73481139  0.12912768     0.62500
F1567       F  0.18592584  0.76063371  0.21226647    -0.22600
F1568       F  0.19522391  0.71465553  0.22600149    -0.20000
F1569       F  0.16766825  0.72364264  0.18731461    -0.19600
F1570       F  0.29512995  0.75815921  0.11034014    -0.19700
F1571       F  0.29795929  0.70939068  0.11357780    -0.20000
F1572       F  0.32056640  0.73725151  0.14586520    -0.22700
C1573       C  0.20667009  0.73566709  0.86630067    -0.05500
C1574       C  0.23085393  0.72667583  0.88248254     0.00400
C1575       C  0.25641340  0.71904016  0.86714765    -0.08200
C1576       C  0.25626831  0.71982030  0.83638299    -0.05500
C1577       C  0.23177041  0.72851363  0.82008993     0.00400
C1578       C  0.20615817  0.73602269  0.83581502    -0.08100
C1579       C  0.17684528  0.74317250  0.82259333     0.62300
H1580       H  0.18703935  0.74155373  0.87784474     0.13000
H1581       H  0.27587503  0.71436938  0.82479519     0.13000
C1582       C  0.28382504  0.71037734  0.88302308     0.62500
F1583       F  0.17015889  0.77185142  0.82791043    -0.22600
F1584       F  0.15575970  0.72589942  0.83527203    -0.20000
F1585       F  0.17549983  0.73847892  0.79337837    -0.19600
F1586       F  0.27823721  0.68726159  0.90134800    -0.19700
F1587       F  0.29374502  0.73360273  0.89890880    -0.20000
F1588       F  0.30572830  0.70227713  0.86418386    -0.22700
C1589       C  0.06076307  0.61443059  0.03527176    -0.05500
C1590       C  0.08429707  0.61171508  0.01617611     0.00400
C1591       C  0.08672269  0.58702687  0.99838066    -0.08200
C1592       C  0.06488238  0.56604861  0.99986561    -0.05500
C1593       C  0.04118807  0.56859849  0.01880653     0.00400
C1594       C  0.03893595  0.59312379  0.03697494    -0.08100
C1595       C  0.01357892  0.59711422  0.05755596     0.62300
H1596       H  0.05980045  0.63332614  0.04902179     0.13000
H1597       H  0.06651014  0.54693324  0.98648198     0.13000
C1598       C  0.11263829  0.58223233  0.97855047     0.62500
F1599       F  0.01485067  0.57660076  0.07941650    -0.22600
F1600       F  0.98775702  0.59421434  0.04268536    -0.20000
F1601       F  0.01380418  0.62422443  0.07021061    -0.19600
F1602       F  0.13815772  0.58500168  0.99395867    -0.19700
F1603       F  0.11225108  0.60228803  0.95627343    -0.20000
F1604       F  0.11241524  0.55488703  0.96639526    -0.22700
C1605       C  0.77680438  0.77000008  0.62254076    -0.05500
C1606       C  0.76792112  0.74378798  0.61051965     0.00400
C1607       C  0.75833525  0.72153915  0.62953048    -0.08200
C1608       C  0.75807083  0.72635920  0.65981447    -0.05500
C1609       C  0.76599410  0.75306515  0.67233956     0.00400
C1610       C  0.77591227  0.77546505  0.65273653    -0.08100
C1611       C  0.78720865  0.80490297  0.66200016     0.62300
H1612       H  0.78553140  0.78613360  0.60780796     0.13000
H1613       H  0.75097910  0.70908539  0.67407355     0.13000
C1614       C  0.74749872  0.69294958  0.61767345     0.62500
F1615       F  0.78611742  0.82490540  0.63957476    -0.22600
F1616       F  0.81580692  0.80239741  0.67042600    -0.20000
F1617       F  0.77099495  0.81622645  0.68402206    -0.19600
F1618       F  0.77027370  0.67764902  0.60570130    -0.19700
F1619       F  0.72680663  0.69812225  0.59664069    -0.20000
F1620       F  0.73494484  0.67587683  0.63899568    -0.22700
C1621       C  0.75734516  0.73992274  0.34359213    -0.05500
C1622       C  0.77432570  0.76137770  0.35660013     0.00400
C1623       C  0.78800793  0.78205028  0.33837708    -0.08200
C1624       C  0.78464778  0.78012670  0.30802106    -0.05500
C1625       C  0.76849177  0.75807065  0.29430433     0.00400
C1626       C  0.75471061  0.73717543  0.31304570    -0.08100
C1627       C  0.73812660  0.71077416  0.30261581     0.62300
H1628       H  0.74725725  0.72402008  0.35770611     0.13000
H1629       H  0.79500443  0.79629770  0.29471843     0.13000
C1630       C  0.80562615  0.80671309  0.35107101     0.62500
F1631       F  0.74155331  0.68777878  0.32168072    -0.22600
F1632       F  0.74781542  0.70122318  0.27612954    -0.20000
F1633       F  0.70888741  0.71733676  0.30115512    -0.19600
F1634       F  0.82936271  0.79597530  0.36583596    -0.19700
F1635       F  0.78841985  0.82231841  0.36993383    -0.20000
F1636       F  0.81578125  0.82555085  0.32994150    -0.22700
C1637       C  0.94903223  0.63915739  0.48605814    -0.05500
C1638       C  0.91988805  0.63762219  0.47781007     0.00400
C1639       C  0.90730418  0.61077459  0.47017772    -0.08200
C1640       C  0.92460365  0.58585038  0.47151667    -0.05500
C1641       C  0.95340361  0.58723374  0.48083838     0.00400
C1642       C  0.96618112  0.61410064  0.48779145    -0.08100
C1643       C  0.99778231  0.61611194  0.49656182     0.62300
H1644       H  0.95797304  0.66002573  0.49186480     0.13000
H1645       H  0.91543805  0.56484404  0.46655919     0.13000
C1646       C  0.87555651  0.60834532  0.46173691     0.62500
F1647       F  0.00620467  0.64443627  0.50147724    -0.22600
F1648       F  0.01489161  0.60511792  0.47465785    -0.20000
F1649       F  0.00250619  0.60033638  0.52161730    -0.19600
F1650       F  0.87007802  0.62568720  0.43790169    -0.19700
F1651       F  0.85813707  0.61705667  0.48446481    -0.20000
F1652       F  0.86799971  0.58020620  0.45480713    -0.22700
C1653       C  0.28502865  0.86965340  0.21978690    -0.05500
C1654       C  0.29032770  0.88443189  0.24579352     0.00400
C1655       C  0.28964597  0.86848727  0.27197604    -0.08200
C1656       C  0.28416904  0.83837437  0.27114421    -0.05500
C1657       C  0.27853508  0.82336234  0.24522641     0.00400
C1658       C  0.27876769  0.83954621  0.21891732    -0.08100
C1659       C  0.27354413  0.82546446  0.18980580     0.62300
H1660       H  0.28619036  0.88206603  0.19987846     0.13000
H1661       H  0.28475790  0.82609421  0.29105600     0.13000
C1662       C  0.29593314  0.88301246  0.30061371     0.62500
F1663       F  0.28014212  0.84403190  0.16710657    -0.22600
F1664       F  0.24477161  0.81772763  0.18725514    -0.20000
F1665       F  0.29069735  0.80121734  0.18684142    -0.19600
F1666       F  0.27686845  0.90574446  0.30475335    -0.19700
F1667       F  0.32404047  0.89347263  0.30056150    -0.20000
F1668       F  0.29290716  0.86403831  0.32373561    -0.22700
C1669       C  0.45834790  0.01522920  0.11404018    -0.05500
C1670       C  0.43294885  0.99855245  0.11395725     0.00400
C1671       C  0.42640102  0.98080177  0.08999934    -0.08200
C1672       C  0.44564847  0.98075293  0.06648145    -0.05500
C1673       C  0.47050101  0.99827732  0.06603275     0.00400
C1674       C  0.47748578  0.01535493  0.09035000    -0.08100
C1675       C  0.50510323  0.03319561  0.09151800     0.62300
H1676       H  0.46277613  0.02860652  0.13268588     0.13000
H1677       H  0.44071073  0.96796702  0.04754938     0.13000
C1678       C  0.39856432  0.96322739  0.08852087     0.62500
F1679       F  0.50996885  0.04403377  0.11893192    -0.22600
F1680       F  0.50323265  0.05637552  0.07256701    -0.20000
F1681       F  0.52862154  0.01613424  0.08408944    -0.19600
F1682       F  0.37488558  0.98121623  0.09241968    -0.19700
F1683       F  0.39858826  0.94207130  0.10976157    -0.20000
F1684       F  0.39545338  0.94960915  0.06210370    -0.22700
C1685       C  0.26278426  0.14029660  0.25020288    -0.05500
C1686       C  0.29212733  0.13630893  0.24372908     0.00400
C1687       C  0.30955135  0.16160536  0.24016337    -0.08200
C1688       C  0.29650204  0.18933458  0.24200332    -0.05500
C1689       C  0.26744855  0.19373184  0.25054160     0.00400
C1690       C  0.24992439  0.16804219  0.25313882    -0.08100
C1691       C  0.21729083  0.16861041  0.25579635     0.62300
H1692       H  0.24944278  0.12105446  0.25152758     0.13000
H1693       H  0.30958070  0.20796486  0.23668959     0.13000
C1694       C  0.34213995  0.16062798  0.23532270     0.62500
F1695       F  0.20567472  0.14162730  0.26212941    -0.22600
F1696       F  0.20582609  0.17750560  0.22966281    -0.20000
F1697       F  0.20897872  0.18662814  0.27767001    -0.19600
F1698       F  0.34796248  0.16103222  0.20599232    -0.19700
F1699       F  0.35445101  0.13634694  0.24792017    -0.20000
F1700       F  0.35536692  0.18447714  0.24763462    -0.22700
C1701       C  0.20052321  0.26024108  0.87626897    -0.05500
C1702       C  0.22569129  0.26877826  0.89106837     0.00400
C1703       C  0.25051368  0.27617525  0.87444638    -0.08200
C1704       C  0.24921429  0.27436557  0.84383080    -0.05500
C1705       C  0.22391282  0.26580090  0.82886012     0.00400
C1706       C  0.19878961  0.25932153  0.84577122    -0.08100
C1707       C  0.16878791  0.25372404  0.83358047     0.62300
H1708       H  0.18116791  0.25559856  0.88885874     0.13000
H1709       H  0.26835008  0.27957106  0.83127005     0.13000
C1710       C  0.27805969  0.28664013  0.88888406     0.62500
F1711       F  0.16040262  0.22574667  0.84037808    -0.22600
F1712       F  0.16712975  0.25750049  0.80415147    -0.20000
F1713       F  0.14924775  0.27283599  0.84590503    -0.19600
F1714       F  0.28931155  0.26476502  0.90602226    -0.19700
F1715       F  0.27208994  0.31052613  0.90581791    -0.20000
F1716       F  0.29906610  0.29452363  0.86888833    -0.22700
C1717       C  0.09288076  0.46344164  0.01296470    -0.05500
C1718       C  0.06798214  0.45146431  0.02580505     0.00400
C1719       C  0.06905087  0.42351945  0.03852857    -0.08200
C1720       C  0.09525778  0.40810956  0.03743032    -0.05500
C1721       C  0.11984701  0.41976094  0.02389400     0.00400
C1722       C  0.11905467  0.44789699  0.01182508    -0.08100
C1723       C  0.14557491  0.46091172  0.99729172     0.62300
H1724       H  0.09143068  0.48482106  0.00326488     0.13000
H1725       H  0.09655254  0.38634669  0.04623875     0.13000
C1726       C  0.04230882  0.40942921  0.05171544     0.62500
F1727       F  0.14056542  0.48899154  0.98784790    -0.22600
F1728       F  0.15330965  0.44436379  0.97366043    -0.20000
F1729       F  0.16839446  0.46141557  0.01664361    -0.19600
F1730       F  0.02038754  0.40837401  0.03139070    -0.19700
F1731       F  0.03302912  0.42522052  0.07529351    -0.20000
F1732       F  0.04778325  0.38138928  0.06099969    -0.22700
C1733       C  0.26636130  0.28413096  0.19157332    -0.05500
C1734       C  0.23981003  0.27454024  0.20363405     0.00400
C1735       C  0.21718178  0.26707526  0.18382653    -0.08200
C1736       C  0.22226320  0.26893413  0.15369141    -0.05500
C1737       C  0.24817621  0.27964921  0.14206540     0.00400
C1738       C  0.27075522  0.28719063  0.16132674    -0.08100
C1739       C  0.29968053  0.29777500  0.14971963     0.62300
H1740       H  0.28404256  0.28895799  0.20609130     0.13000
H1741       H  0.20487875  0.26370702  0.13884314     0.13000
C1742       C  0.18666306  0.25849439  0.19244001     0.62500
F1743       F  0.31916975  0.30347903  0.17169468    -0.22600
F1744       F  0.29583794  0.32296154  0.13386464    -0.20000
F1745       F  0.31158257  0.27678265  0.13206498    -0.19600
F1746       F  0.18037661  0.26502894  0.22060454    -0.19700
F1747       F  0.18311084  0.22910351  0.18814894    -0.20000
F1748       F  0.16673829  0.27330505  0.17554992    -0.22700
C1749       C  0.23799246  0.36401533  0.79214706    -0.05500
C1750       C  0.26594954  0.37248754  0.78365631     0.00400
C1751       C  0.28546455  0.35064777  0.77405536    -0.08200
C1752       C  0.27711988  0.32124913  0.77565246    -0.05500
C1753       C  0.24899151  0.31243388  0.78365873     0.00400
C1754       C  0.22874898  0.33465890  0.79153053    -0.08100
C1755       C  0.19745976  0.32859190  0.79970226     0.62300
H1756       H  0.22336935  0.38067764  0.79983066     0.13000
H1757       H  0.29269621  0.30480905  0.76946084     0.13000
C1758       C  0.31495503  0.35754688  0.76094728     0.62500
F1759       F  0.19592665  0.32102324  0.82857771    -0.22600
F1760       F  0.18598428  0.30684011  0.78305668    -0.20000
F1761       F  0.18023127  0.35283031  0.79546489    -0.19600
F1762       F  0.33596290  0.35619401  0.78218087    -0.19700
F1763       F  0.31533717  0.38467040  0.74805736    -0.20000
F1764       F  0.32188525  0.33769305  0.73968617    -0.22700
C1765       C  0.25205655  0.63252769  0.78392258    -0.05500
C1766       C  0.28027777  0.62521410  0.77530726     0.00400
C1767       C  0.29885340  0.64819304  0.76579670    -0.08200
C1768       C  0.28889669  0.67715989  0.76716851    -0.05500
C1769       C  0.26027554  0.68452224  0.77470320     0.00400
C1770       C  0.24120543  0.66120235  0.78261468    -0.08100
C1771       C  0.20897057  0.66376441  0.78849688     0.62300
H1772       H  0.23770490  0.61526421  0.79099394     0.13000
H1773       H  0.30356498  0.69454194  0.76119544     0.13000
C1774       C  0.32869321  0.64315288  0.75264027     0.62500
F1775       F  0.20354556  0.65713677  0.81720311    -0.22600
F1776       F  0.19410649  0.64433751  0.77130540    -0.20000
F1777       F  0.19798251  0.69061819  0.78263901    -0.19600
F1778       F  0.32912393  0.61815256  0.73631448    -0.19700
F1779       F  0.34922512  0.64147423  0.77430226    -0.20000
F1780       F  0.33645520  0.66573734  0.73433564    -0.22700
C1781       C  0.41728419  0.50078964  0.89597829    -0.05500
C1782       C  0.43459646  0.49793495  0.87119984     0.00400
C1783       C  0.46511019  0.49881400  0.87322985    -0.08200
C1784       C  0.47760521  0.50197514  0.90071345    -0.05500
C1785       C  0.46015636  0.50460129  0.92543804     0.00400
C1786       C  0.42966631  0.50418582  0.92329224    -0.08100
C1787       C  0.41051657  0.50697903  0.94988210     0.62300
H1788       H  0.39390210  0.50019395  0.89368543     0.13000
H1789       H  0.50097660  0.50236112  0.90315852     0.13000
C1790       C  0.48401008  0.49645449  0.84649116     0.62500
F1791       F  0.38132126  0.50620095  0.94299084    -0.22600
F1792       F  0.41612498  0.53299305  0.96345551    -0.20000
F1793       F  0.41620742  0.48441672  0.96882190    -0.19600
F1794       F  0.51323804  0.49616142  0.85332089    -0.19700
F1795       F  0.47877884  0.51987445  0.82845781    -0.20000
F1796       F  0.47762710  0.47116489  0.83192633    -0.22700
C1797       C  0.36994790  0.78501034  0.29196767    -0.05500
C1798       C  0.38420391  0.79323971  0.26631809     0.00400
C1799       C  0.36819256  0.79411596  0.24031116    -0.08200
C1800       C  0.33862075  0.78633197  0.24076398    -0.05500
C1801       C  0.32369154  0.77917640  0.26644020     0.00400
C1802       C  0.33991285  0.77813792  0.29268717    -0.08100
C1803       C  0.32618341  0.77067311  0.32165351     0.62300
H1804       H  0.38248584  0.78473807  0.31174299     0.13000
H1805       H  0.32669929  0.78612899  0.22076749     0.13000
C1806       C  0.38223642  0.80401102  0.21222566     0.62500
F1807       F  0.32334936  0.74099934  0.32440266    -0.22600
F1808       F  0.29935884  0.78366161  0.32426354    -0.20000
F1809       F  0.34306399  0.78021450  0.34440958    -0.19600
F1810       F  0.40605245  0.78681023  0.20626885    -0.19700
F1811       F  0.39109750  0.83250753  0.21466481    -0.20000
F1812       F  0.36331477  0.80233412  0.18909320    -0.22700
C1813       C  0.68579799  0.79336518  0.27395819    -0.05500
C1814       C  0.69265754  0.78992009  0.24456159     0.00400
C1815       C  0.66920377  0.79021219  0.22420564    -0.08200
C1816       C  0.64077687  0.79576508  0.23389661    -0.05500
C1817       C  0.63426080  0.80015801  0.26301343     0.00400
C1818       C  0.65705191  0.79841265  0.28358537    -0.08100
C1819       C  0.65110616  0.80139683  0.31569090     0.62300
H1820       H  0.70330311  0.79209581  0.28949733     0.13000
H1821       H  0.62324559  0.79676210  0.21830371     0.13000
C1822       C  0.67173281  0.78356312  0.19228974     0.62500
F1823       F  0.67438049  0.79191075  0.33209370    -0.22600
F1824       F  0.62716905  0.78502404  0.32348593    -0.20000
F1825       F  0.64598331  0.83011761  0.32219632    -0.19600
F1826       F  0.65383056  0.76052864  0.18563682    -0.19700
F1827       F  0.69967227  0.77681523  0.18438265    -0.20000
F1828       F  0.66238243  0.80697257  0.17606046    -0.22700
C1829       C  0.47045321  0.96519875  0.36196208    -0.05500
C1830       C  0.49640646  0.96825868  0.34627665     0.00400
C1831       C  0.51844985  0.98644023  0.35723062    -0.08200
C1832       C  0.51578240  0.99677307  0.38555633    -0.05500
C1833       C  0.49071873  0.99186470  0.40232642     0.00400
C1834       C  0.46676233  0.97734822  0.38952733    -0.08100
C1835       C  0.43764578  0.97374993  0.40467536     0.62300
H1836       H  0.45342107  0.95182846  0.35317564     0.13000
H1837       H  0.53350241  0.00927270  0.39448787     0.13000
C1838       C  0.54487073  0.99582345  0.33990847     0.62500
F1839       F  0.41795207  0.95853925  0.38805869    -0.22600
F1840       F  0.42574148  0.00070721  0.41002981    -0.20000
F1841       F  0.44115791  0.95875273  0.43037369    -0.19600
F1842       F  0.54171554  0.99079054  0.31063672    -0.19700
F1843       F  0.56911702  0.98128684  0.34991560    -0.20000
F1844       F  0.54919679  0.02528472  0.34328063    -0.22700
C1845       C  0.75473353  0.31109844  0.64380144    -0.05500
C1846       C  0.76124351  0.28839833  0.62450625     0.00400
C1847       C  0.76491791  0.26016278  0.63640454    -0.08200
C1848       C  0.76067280  0.25584394  0.66650803    -0.05500
C1849       C  0.75443073  0.27863139  0.68568067     0.00400
C1850       C  0.75256796  0.30706368  0.67400437    -0.08100
C1851       C  0.75024784  0.33375835  0.69280703     0.62300
H1852       H  0.75169879  0.33271750  0.63515146     0.13000
H1853       H  0.76172018  0.23421290  0.67526047     0.13000
C1854       C  0.77369978  0.23454535  0.61797638     0.62500
F1855       F  0.72152585  0.33948231  0.69911254    -0.22600
F1856       F  0.76186743  0.35780169  0.67896808    -0.20000
F1857       F  0.76565850  0.32991705  0.71800644    -0.19600
F1858       F  0.79737996  0.24169045  0.60095187    -0.19700
F1859       F  0.75072797  0.22648592  0.60069633    -0.20000
F1860       F  0.78137661  0.21080096  0.63474227    -0.22700
C1861       C  0.74352349  0.27301738  0.36379250    -0.05500
C1862       C  0.76776280  0.28860509  0.37286343     0.00400
C1863       C  0.78914655  0.29624263  0.35203113    -0.08200
C1864       C  0.78413935  0.29018599  0.32254768    -0.05500
C1865       C  0.75879171  0.27625869  0.31277661     0.00400
C1866       C  0.73877830  0.26622604  0.33439138    -0.08100
C1867       C  0.71306778  0.24717144  0.32742427     0.62300
H1868       H  0.72764239  0.26694947  0.38003100     0.13000
H1869       H  0.80025256  0.29671252  0.30683138     0.13000
C1870       C  0.81749297  0.31048740  0.36067219     0.62500
F1871       F  0.70131766  0.23440607  0.35197104    -0.22600
F1872       F  0.72190458  0.22513546  0.30953560    -0.20000
F1873       F  0.69145894  0.26332229  0.31455170    -0.19600
F1874       F  0.82847659  0.29738197  0.38529913    -0.19700
F1875       F  0.81301597  0.33958217  0.36585643    -0.20000
F1876       F  0.83823412  0.30806234  0.33910258    -0.22700
C1877       C  0.87915630  0.43202327  0.47976836    -0.05500
C1878       C  0.85547187  0.44884310  0.48865960     0.00400
C1879       C  0.85940757  0.47808328  0.49631144    -0.08200
C1880       C  0.88766713  0.48943253  0.49617497    -0.05500
C1881       C  0.91153678  0.47231136  0.48826702     0.00400
C1882       C  0.90740281  0.44331310  0.47944523    -0.08100
C1883       C  0.93279793  0.42403068  0.47120512     0.62300
H1884       H  0.87539651  0.40959625  0.47410713     0.13000
H1885       H  0.89141665  0.51167847  0.50251331     0.13000
C1886       C  0.83374492  0.49690362  0.50447912     0.62500
F1887       F  0.92403669  0.39599262  0.46533472    -0.22600
F1888       F  0.95249352  0.42290785  0.49369845    -0.20000
F1889       F  0.94633694  0.43492630  0.44676026    -0.19600
F1890       F  0.82047416  0.48586088  0.52901939    -0.19700
F1891       F  0.81396173  0.49726263  0.48202883    -0.20000
F1892       F  0.84200745  0.52516890  0.50996052    -0.22700
loop_ 
_geom_bond_atom_site_label_1 
_geom_bond_atom_site_label_2 
_geom_bond_distance 
_geom_bond_site_symmetry_2 
_ccdc_geom_bond_type 
N1            N2   1.325       .  A
N1            C5   1.361       .  A
N1           Cu9   2.160       .  S
N2            C3   1.340       .  A
N2           Cu8   2.048       .  S
C3            C4   1.374       .  A
C3            H6   1.081       .  S
C4            C5   1.403       .  A
C4         C1862   1.497       .  S
C5            H7   1.082       .  S
Cu8          N11   2.048       .  S
Cu9          N19   2.159       .  S
Cu10         N12   2.052       .  S
Cu10         N18   2.053       .  S
N11          N12   1.316       .  A
N11          C15   1.343       .  A
N12          C13   1.340       .  A
C13          C14   1.382       .  A
C13          H16   1.082       .  S
C14          C15   1.383       .  A
C14        C1878   1.466       .  S
C15          H17   1.082       .  S
N18          N19   1.322       .  A
N18          C22   1.339       .  A
N19          C20   1.362       .  A
C20          C21   1.410       .  A
C20          H23   1.078       .  S
C21          C22   1.382       .  A
C21        C1846   1.516       .  S
C22          H24   1.082       .  S
N25          N26   1.324       .  A
N25          C29   1.358       .  A
N25         Cu33   2.152       .  S
N26          C27   1.342       .  A
N26         Cu32   2.052       .  S
C27          C28   1.376       .  A
C27          H30   1.081       .  S
C28          C29   1.401       .  A
C28        C1817   1.495       .  S
C29          H31   1.082       .  S
Cu32         N35   2.051       .  S
Cu33         N43   2.152       .  S
Cu34         N36   2.059       .  S
Cu34         N42   2.062       .  S
N35          N36   1.316       .  A
N35          C39   1.341       .  A
N36          C37   1.343       .  A
C37          C38   1.389       .  A
C37          H40   1.082       .  S
C38          C39   1.386       .  A
C38        C1830   1.483       .  S
C39          H41   1.081       .  S
N42          N43   1.326       .  A
N42          C46   1.343       .  A
N43          C44   1.360       .  A
C44          C45   1.399       .  A
C44          H47   1.082       .  S
C45          C46   1.376       .  A
C45        C1798   1.495       .  S
C46          H48   1.082       .  S
N49          N50   1.324       .  A
N49          C53   1.365       .  A
N49         Cu57   2.175       .  S
N50          C51   1.339       .  A
N50         Cu56   2.043       .  S
C51          C52   1.374       .  A
C51          H54   1.081       .  S
C52          C53   1.408       .  A
C52        C1750   1.506       .  S
C53          H55   1.082       .  S
Cu56         N59   2.044       .  S
Cu57         N67   2.176       .  S
Cu58         N60   2.046       .  S
Cu58         N66   2.048       .  S
N59          N60   1.315       .  A
N59          C63   1.339       .  A
N60          C61   1.341       .  A
C61          C62   1.383       .  A
C61          H64   1.082       .  S
C62          C63   1.383       .  A
C62        C1782   1.463       .  S
C63          H65   1.082       .  S
N66          N67   1.324       .  A
N66          C70   1.340       .  A
N67          C68   1.363       .  A
C68          C69   1.411       .  A
C68          H71   1.082       .  S
C69          C70   1.378       .  A
C69        C1766   1.514       .  S
C70          H72   1.077       .  S
N73          N74   1.326       .  A
N73          C77   1.363       .  A
N73         Cu81   2.171       .  S
N74          C75   1.343       .  A
N74         Cu80   2.065       .  S
C75          C76   1.376       .  A
C75          H78   1.082       .  S
C76          C77   1.404       .  A
C76        C1737   1.501       .  S
C77          H79   1.082       .  S
Cu80         N83   2.065       .  S
Cu81         N91   2.169   1_554  S
Cu82         N84   2.044   1_556  S
Cu82         N90   2.043       .  S
N83          N84   1.318       .  A
N83          C87   1.346       .  A
N84          C85   1.339   1_554  A
C85          C86   1.378   1_556  A
C85          H88   1.082       .  S
C86          C87   1.383       .  A
C86        C1721   1.465       .  S
C87          H89   1.082       .  S
N90          N91   1.323       .  A
N90          C94   1.340       .  A
N91          C92   1.364       .  A
C92          C93   1.409       .  A
C92          H95   1.081       .  S
C93          C94   1.376       .  A
C93        C1702   1.507       .  S
C94          H96   1.082       .  S
N97          N98   1.325       .  A
N97         C101   1.361       .  A
N97        Cu105   2.171       .  S
N98          C99   1.344       .  A
N98        Cu104   2.061       .  S
C99         C100   1.381       .  A
C99         H102   1.079       .  S
C100        C101   1.408       .  A
C100       C1686   1.515       .  S
C101        H103   1.082       .  S
Cu104       N107   2.060       .  S
Cu105       N115   2.171   1_545  S
Cu106       N108   2.048       .  S
Cu106       N114   2.048       .  S
N107        N108   1.318   1_545  A
N107        C111   1.343       .  A
N108        C109   1.342       .  A
C109        C110   1.379   1_565  A
C109        H112   1.081       .  S
C110        C111   1.382       .  A
C110       C1670   1.469   1_545  S
C111        H113   1.082       .  S
N114        N115   1.324       .  A
N114        C118   1.342       .  A
N115        C116   1.363       .  A
C116        C117   1.406       .  A
C116        H119   1.082       .  S
C117        C118   1.374       .  A
C117       C1654   1.502       .  S
C118        H120   1.082       .  S
N121        N122   1.327       .  A
N121        C125   1.368       .  A
N121       Cu129   2.196       .  S
N122        C123   1.341       .  A
N122       Cu128   2.052       .  S
C123        C124   1.373       .  A
C123        H126   1.082       .  S
C124        C125   1.410       .  A
C124       C1622   1.508       .  S
C125        H127   1.082       .  S
Cu128       N131   2.051       .  S
Cu129       N139   2.195       .  S
Cu130       N132   2.034       .  S
Cu130       N138   2.033       .  S
N131        N132   1.316       .  A
N131        C135   1.343       .  A
N132        C133   1.338       .  A
C133        C134   1.377       .  A
C133        H136   1.082       .  S
C134        C135   1.382       .  A
C134       C1638   1.461       .  S
C135        H137   1.082       .  S
N138        N139   1.324       .  A
N138        C142   1.340       .  A
N139        C140   1.367       .  A
C140        C141   1.412       .  A
C140        H143   1.082       .  S
C141        C142   1.371       .  A
C141       C1606   1.506       .  S
C142        H144   1.082       .  S
N145        N146   1.324       .  A
N145        C149   1.362       .  A
N145       Cu153   2.169       .  S
N146        C147   1.340       .  A
N146       Cu152   2.053       .  S
C147        C148   1.378       .  A
C147        H150   1.082       .  S
C148        C149   1.409       .  A
C148       C1558   1.511       .  S
C149        H151   1.079       .  S
Cu152       N155   2.054       .  S
Cu153       N163   2.168   1_554  S
Cu154       N156   2.053   1_556  S
Cu154       N162   2.054       .  S
N155        N156   1.317       .  A
N155        C159   1.343       .  A
N156        C157   1.342   1_554  A
C157        C158   1.382   1_556  A
C157        H160   1.081       .  S
C158        C159   1.382       .  A
C158       C1590   1.470       .  S
C159        H161   1.082       .  S
N162        N163   1.323       .  A
N162        C166   1.338       .  A
N163        C164   1.365       .  A
C164        C165   1.410       .  A
C164        H167   1.080       .  S
C165        C166   1.379       .  A
C165       C1574   1.513       .  S
C166        H168   1.082       .  S
O169       Cu177   1.996   1_455  S
O169        C179   1.276   1_556  A
O170       Cu177   1.997       .  S
O170        C180   1.278   1_556  A
O171       Cu177   1.984   1_455  S
O171        C181   1.276   1_556  A
O172       Cu177   1.990       .  S
O172        C182   1.276   1_556  A
O173       Cu178   2.005       .  S
O173        C182   1.276       .  A
O174       Cu178   2.012   1_455  S
O174        C181   1.277       .  A
O175       Cu178   2.010       .  S
O175        C180   1.276       .  A
O176       Cu178   2.003   1_455  S
O176        C179   1.276       .  A
Cu177      Cu178   2.369   1_556  S
C179       C1718   1.467       .  S
C180       C1526   1.493       .  S
C181       C1593   1.476       .  S
C182       C1545   1.481       .  S
N183        N184   1.326       .  A
N183        C187   1.365       .  A
N183       Cu191   2.171   1_565  S
N184        C185   1.342       .  A
N184       Cu190   2.067       .  S
C185        C186   1.380       .  A
C185        H188   1.082       .  S
C186        C187   1.406       .  A
C186       C1494   1.510       .  S
C187        H189   1.082       .  S
Cu190       N193   2.066   1_565  S
Cu191       N201   2.172       .  S
Cu192       N194   2.051       .  S
Cu192       N200   2.053       .  S
N193        N194   1.316       .  A
N193        C197   1.344   1_545  A
N194        C195   1.342       .  A
C195        C196   1.386       .  A
C195        H198   1.082       .  S
C196        C197   1.390   1_545  A
C196       C1510   1.482       .  S
C197        H199   1.082       .  S
N200        N201   1.324       .  A
N200        C204   1.342       .  A
N201        C202   1.361       .  A
C202        C203   1.407       .  A
C202        H205   1.082       .  S
C203        C204   1.378       .  A
C203       C1478   1.507       .  S
C204        H206   1.080       .  S
O207       Cu215   1.996   1_554  S
O207        C217   1.277       .  A
O208       Cu215   1.988       .  S
O208        C218   1.274   1_565  A
O209       Cu215   1.993       .  S
O209        C219   1.274   1_566  A
O210       Cu215   1.989       .  S
O210        C220   1.277   1_565  A
O211       Cu216   2.002       .  S
O211        C220   1.276       .  A
O212       Cu216   2.010   1_554  S
O212        C219   1.279       .  A
O213       Cu216   1.996       .  S
O213        C218   1.276       .  A
O214       Cu216   1.996   1_554  S
O214        C217   1.275   1_545  A
Cu215      Cu216   2.371   1_565  S
C217       C1673   1.470       .  S
C218       C1449   1.462       .  S
C219       C1513   1.483       .  S
C220       C1462   1.486       .  S
N221        N222   1.325       .  A
N221        C225   1.360       .  A
N221       Cu229   2.149   1_554  S
N222        C223   1.341       .  A
N222       Cu228   2.062       .  S
C223        C224   1.378       .  A
C223        H226   1.082       .  S
C224        C225   1.402       .  A
C224       C1430   1.502       .  S
C225        H227   1.080       .  S
Cu228       N231   2.060       .  S
Cu229       N239   2.147       .  S
Cu230       N232   2.047       .  S
Cu230       N238   2.046       .  S
N231        N232   1.316   1_554  A
N231        C235   1.343       .  A
N232        C233   1.340       .  A
C233        C234   1.383       .  A
C233        H236   1.082       .  S
C234        C235   1.387   1_556  A
C234       C1542   1.472   1_556  S
C235        H237   1.082       .  S
N238        N239   1.322       .  A
N238        C242   1.337       .  A
N239        C240   1.361       .  A
C240        C241   1.404       .  A
C240        H243   1.081       .  S
C241        C242   1.377       .  A
C241       C1414   1.500       .  S
C242        H244   1.082       .  S
C245        H246   1.099       .  S
C245        C251   1.567       .  S
C245        C250   1.566       .  S
C245        C249   1.545       .  S
C247        H248   1.104       .  S
C247        C253   1.580       .  S
C247        C252   1.585       .  S
C247        C254   1.568       .  S
C249        C252   1.377       .  D
C249       C1814   1.514       .  S
C250        C253   1.398       .  D
C250       C1625   1.547       .  S
C251        C254   1.392       .  D
C251       C1382   1.531       .  S
C252       C1497   1.540       .  S
C253       C1398   1.553       .  S
C254       C1369   1.543       .  S
N255        N256   1.323       .  A
N255        C259   1.360       .  A
N255       Cu263   2.159       .  S
N256        C257   1.341       .  A
N256       Cu262   2.039       .  S
C257        C258   1.374       .  A
C257        H260   1.082       .  S
C258        C259   1.404       .  A
C258       C1350   1.496       .  S
C259        H261   1.082       .  S
Cu262       N265   2.039       .  S
Cu263       N273   2.157       .  S
Cu264       N266   2.056       .  S
Cu264       N272   2.053       .  S
N265        N266   1.319       .  A
N265        C269   1.342       .  A
N266        C267   1.339       .  A
C267        C268   1.382       .  A
C267        H270   1.082       .  S
C268        C269   1.380       .  A
C268       C1334   1.466       .  S
C269        H271   1.082       .  S
N272        N273   1.321       .  A
N272        C276   1.339       .  A
N273        C274   1.363       .  A
C274        C275   1.409       .  A
C274        H277   1.080       .  S
C275        C276   1.382       .  A
C275       C1385   1.512       .  S
C276        H278   1.082       .  S
C279        H280   1.106       .  S
C279        C285   1.562       .  S
C279        C284   1.561       .  S
C279        C283   1.567       .  S
C281        H282   1.104       .  S
C281        C287   1.566       .  S
C281        C286   1.565       .  S
C281        C288   1.570       .  S
C283        C286   1.388       .  D
C283       C1433   1.525       .  S
C284        C287   1.385       .  D
C284       C1481   1.530       .  S
C285        C288   1.393       .  D
C285       C1318   1.537       .  S
C286       C1353   1.535       .  S
C287       C1302   1.530       .  S
C288       C1865   1.532       .  S
N289        N290   1.325       .  A
N289        C293   1.363       .  A
N289       Cu297   2.173       .  S
N290        C291   1.342       .  A
N290       Cu296   2.055       .  S
C291        C292   1.377       .  A
C291        H294   1.081       .  S
C292        C293   1.407       .  A
C292       C1305   1.504       .  S
C293        H295   1.082       .  S
Cu296       N299   2.053       .  S
Cu297       N307   2.173       .  S
Cu298       N300   2.056       .  S
Cu298       N306   2.057       .  S
N299        N300   1.316       .  A
N299        C303   1.341       .  A
N300        C301   1.343       .  A
C301        C302   1.385       .  A
C301        H304   1.082       .  S
C302        C303   1.383       .  A
C302       C1289   1.471       .  S
C303        H305   1.082       .  S
N306        N307   1.324       .  A
N306        C310   1.341       .  A
N307        C308   1.363       .  A
C308        C309   1.409       .  A
C308        H311   1.079       .  S
C309        C310   1.379       .  A
C309       C1270   1.513       .  S
C310        H312   1.082       .  S
N313        N314   1.325       .  A
N313        C317   1.361       .  A
N313       Cu321   2.160   1_455  S
N314        C315   1.342       .  A
N314       Cu320   2.065       .  S
C315        C316   1.381       .  A
C315        H318   1.082       .  S
C316        C317   1.406       .  A
C316       C1222   1.510       .  S
C317        H319   1.079       .  S
Cu320       N323   2.064   1_455  S
Cu321       N331   2.159       .  S
Cu322       N324   2.055       .  S
Cu322       N330   2.056       .  S
N323        N324   1.318       .  A
N323        C327   1.344   1_655  A
N324        C325   1.343       .  A
C325        C326   1.382       .  A
C325        H328   1.082       .  S
C326        C327   1.385   1_655  A
C326       C1254   1.474       .  S
C327        H329   1.081       .  S
N330        N331   1.325       .  A
N330        C334   1.342       .  A
N331        C332   1.361       .  A
C332        C333   1.403       .  A
C332        H335   1.081       .  S
C333        C334   1.376       .  A
C333       C1238   1.500       .  S
C334        H336   1.082       .  S
O337       Cu345   1.990   1_545  S
O337        C347   1.277   1_455  A
O338       Cu345   1.991       .  S
O338        C348   1.273   1_455  A
O339       Cu345   2.006   1_545  S
O339        C349   1.276   1_455  A
O340       Cu345   1.998       .  S
O340        C350   1.277   1_455  A
O341       Cu346   1.989       .  S
O341        C350   1.274       .  A
O342       Cu346   1.996   1_545  S
O342        C349   1.276       .  A
O343       Cu346   2.003       .  S
O343        C348   1.279       .  A
O344       Cu346   2.006   1_545  S
O344        C347   1.276       .  A
Cu345      Cu346   2.370   1_455  S
C347       C1257   1.481       .  S
C348       C1206   1.486       .  S
C349       C1190   1.474       .  S
C350       C1177   1.470       .  S
N351        N352   1.323       .  A
N351        C355   1.361       .  A
N351       Cu359   2.152       .  S
N352        C353   1.339       .  A
N352       Cu358   2.039       .  S
C353        C354   1.372       .  A
C353        H356   1.082       .  S
C354        C355   1.402       .  A
C354       C1129   1.492       .  S
C355        H357   1.082       .  S
Cu358       N361   2.039       .  S
Cu359       N369   2.153       .  S
Cu360       N362   2.060       .  S
Cu360       N368   2.062       .  S
N361        N362   1.316       .  A
N361        C365   1.338       .  A
N362        C363   1.344       .  A
C363        C364   1.389       .  A
C363        H366   1.082       .  S
C364        C365   1.383       .  A
C364       C1161   1.477       .  S
C365        H367   1.081       .  S
N368        N369   1.327       .  A
N368        C372   1.342       .  A
N369        C370   1.359       .  A
C370        C371   1.398       .  A
C370        H373   1.082       .  S
C371        C372   1.374       .  A
C371       C1142   1.492       .  S
C372        H374   1.082       .  S
N375        N376   1.323       .  A
N375        C379   1.363       .  A
N375       Cu383   2.170   1_545  S
N376        C377   1.342       .  A
N376       Cu382   2.050       .  S
C377        C378   1.378       .  A
C377        H380   1.080       .  S
C378        C379   1.408       .  A
C378       C1110   1.509       .  S
C379        H381   1.082       .  S
Cu382       N385   2.049       .  S
Cu383       N393   2.170       .  S
Cu384       N386   2.051       .  S
Cu384       N392   2.049       .  S
N385        N386   1.317   1_545  A
N385        C389   1.341       .  A
N386        C387   1.341       .  A
C387        C388   1.383       .  A
C387        H390   1.082       .  S
C388        C389   1.383   1_565  A
C388       C1465   1.470       .  S
C389        H391   1.082       .  S
N392        N393   1.324       .  A
N392        C396   1.341       .  A
N393        C394   1.364       .  A
C394        C395   1.406       .  A
C394        H397   1.081       .  S
C395        C396   1.375       .  A
C395       C1097   1.503       .  S
C396        H398   1.082       .  S
C399        H400   1.104       .  S
C399        C405   1.550       .  S
C399        C404   1.557       .  S
C399        C403   1.551       .  S
C401        H402   1.108       .  S
C401        C407   1.564       .  S
C401        C406   1.554       .  S
C401        C408   1.572       .  S
C403        C406   1.378       .  D
C403       C1145   1.509       .  S
C404        C407   1.385       .  D
C404       C1081   1.521       .  S
C405        C408   1.389       .  D
C405       C1753   1.526       .  S
C406       C1225   1.522       .  S
C407       C1113   1.529       .  S
C408       C1705   1.523       .  S
N409        N410   1.326       .  A
N409        C413   1.363       .  A
N409       Cu417   2.171       .  S
N410        C411   1.342       .  A
N410       Cu416   2.055       .  S
C411        C412   1.374       .  A
C411        H414   1.082       .  S
C412        C413   1.405       .  A
C412       C1065   1.501       .  S
C413        H415   1.082       .  S
Cu416       N419   2.053       .  S
Cu417       N427   2.171       .  S
Cu418       N420   2.056       .  S
Cu418       N426   2.057       .  S
N419        N420   1.317       .  A
N419        C423   1.343       .  A
N420        C421   1.342       .  A
C421        C422   1.383       .  A
C421        H424   1.082       .  S
C422        C423   1.384       .  A
C422       C1046   1.475       .  S
C423        H425   1.080       .  S
N426        N427   1.325       .  A
N426        C430   1.343       .  A
N427        C428   1.363       .  A
C428        C429   1.404       .  A
C428        H431   1.082       .  S
C429        C430   1.376       .  A
C429       C1078   1.502       .  S
C430        H432   1.082       .  S
C433        H434   1.096       .  S
C433        C439   1.552       .  S
C433        C438   1.552       .  S
C433        C437   1.550       .  S
C435        H436   1.096       .  S
C435        C441   1.555       .  S
C435        C440   1.555       .  S
C435        C442   1.548       .  S
C437        C440   1.380       .  D
C437       C1849   1.518       .  S
C438        C441   1.385       .  D
C438       C1030   1.516       .  S
C439        C442   1.385       .  D
C439       C1062   1.514       .  S
C440       C1241   1.515       .  S
C441       C1417   1.520       .  S
C442       C1014   1.514       .  S
N443        N444   1.322       .  A
N443        C447   1.365       .  A
N443       Cu451   2.175       .  S
N444        C445   1.337       .  A
N444       Cu450   2.023       .  S
C445        C446   1.370       .  A
C445        H448   1.082       .  S
C446        C447   1.408       .  A
C446       C1033   1.499       .  S
C447        H449   1.081       .  S
Cu450       N453   2.025       .  S
Cu451       N461   2.178       .  S
Cu452       N454   2.071       .  S
Cu452       N460   2.074       .  S
N453        N454   1.316       .  A
N453        C457   1.337       .  A
N454        C455   1.345       .  A
C455        C456   1.388       .  A
C455        H458   1.081       .  S
C456        C457   1.376       .  A
C456        C998   1.468       .  S
C457        H459   1.082       .  S
N460        N461   1.329       .  A
N460        C464   1.345       .  A
N461        C462   1.364       .  A
C462        C463   1.403       .  A
C462        H465   1.082       .  S
C463        C464   1.377       .  A
C463        C982   1.505       .  S
C464        H466   1.082       .  S
C467        H468   1.106       .  S
C467        C473   1.548       .  S
C467        C472   1.554       .  S
C467        C471   1.563       .  S
C469        H470   1.101       .  S
C469        C475   1.577       .  S
C469        C474   1.558       .  S
C469        C476   1.561       .  S
C471        C474   1.386       .  D
C471        C950   1.528       .  S
C472        C475   1.392       .  D
C472        C966   1.523       .  S
C473        C476   1.384       .  D
C473        C934   1.520       .  S
C474        C918   1.528       .  S
C475       C1609   1.541       .  S
C476        C985   1.526       .  S
N477        N478   1.322       .  A
N477        C481   1.362       .  A
N477       Cu485   2.154       .  S
N478        C479   1.338       .  A
N478       Cu484   2.053       .  S
C479        C480   1.380       .  A
C479        H482   1.082       .  S
C480        C481   1.408       .  A
C480        C921   1.510       .  S
C481        H483   1.079       .  S
Cu484       N487   2.052       .  S
Cu485       N495   2.155       .  S
Cu486       N488   2.062       .  S
Cu486       N494   2.063       .  S
N487        N488   1.317       .  A
N487        C491   1.343       .  A
N488        C489   1.344       .  A
C489        C490   1.384       .  A
C489        H492   1.082       .  S
C490        C491   1.382       .  A
C490        C902   1.475       .  S
C491        H493   1.080       .  S
N494        N495   1.325       .  A
N494        C498   1.343       .  A
N495        C496   1.359       .  A
C496        C497   1.402       .  A
C496        H499   1.082       .  S
C497        C498   1.378       .  A
C497        C886   1.502       .  S
C498        H500   1.080       .  S
C501        H502   1.104       .  S
C501        C507   1.557       .  S
C501        C506   1.551       .  S
C501        C505   1.565       .  S
C503        H504   1.110       .  S
C503        C509   1.551       .  S
C503        C508   1.549       .  S
C503        C510   1.561       .  S
C505        C508   1.386       .  D
C505        C854   1.525       .  S
C506        C509   1.382       .  D
C506       C1094   1.519       .  S
C507        C510   1.387       .  D
C507       C1577   1.525       .  S
C508        C870   1.512       .  S
C509        C889   1.513       .  S
C510       C1769   1.524       .  S
N511        N512   1.326       .  A
N511        C515   1.365       .  A
N511       Cu519   2.184       .  S
N512        C513   1.344       .  A
N512       Cu518   2.060       .  S
C513        C514   1.376       .  A
C513        H516   1.082       .  S
C514        C515   1.407       .  A
C514        C838   1.507       .  S
C515        H517   1.082       .  S
Cu518       N521   2.058       .  S
Cu519       N529   2.183   1_455  S
Cu520       N522   2.044       .  S
Cu520       N528   2.043       .  S
N521        N522   1.316   1_455  A
N521        C525   1.343       .  A
N522        C523   1.339       .  A
C523        C524   1.383       .  A
C523        H526   1.082       .  S
C524        C525   1.388   1_655  A
C524       C1209   1.475       .  S
C525        H527   1.082       .  S
N528        N529   1.325       .  A
N528        C532   1.341       .  A
N529        C530   1.365       .  A
C530        C531   1.407       .  A
C530        H533   1.082       .  S
C531        C532   1.372       .  A
C531       C1401   1.502       .  S
C532        H534   1.082       .  S
C535        H536   1.101       .  S
C535        C541   1.543       .  S
C535        C540   1.543       .  S
C535        C539   1.558       .  S
C537        H538   1.103       .  S
C537        C543   1.566       .  S
C537        C542   1.558       .  S
C537        C544   1.556       .  S
C539        C542   1.388       .  D
C539        C806   1.514       .  S
C540        C543   1.384       .  D
C540       C1801   1.520       .  S
C541        C544   1.385       .  D
C541        C822   1.518       .  S
C542        C841   1.530       .  S
C543       C1657   1.522       .  S
C544       C1561   1.512       .  S
N545        N546   1.325       .  A
N545        C549   1.364       .  A
N545       Cu553   2.185       .  S
N546        C547   1.343       .  A
N546       Cu552   2.048       .  S
C547        C548   1.375       .  A
C547        H550   1.082       .  S
C548        C549   1.408       .  A
C548        C774   1.505       .  S
C549        H551   1.082       .  S
Cu552       N555   2.049       .  S
Cu553       N563   2.185       .  S
Cu554       N556   2.055       .  S
Cu554       N562   2.057       .  S
N555        N556   1.317       .  A
N555        C559   1.340       .  A
N556        C557   1.343       .  A
C557        C558   1.384       .  A
C557        H560   1.082       .  S
C558        C559   1.381       .  A
C558        C790   1.468       .  S
C559        H561   1.082       .  S
N562        N563   1.325       .  A
N562        C566   1.343       .  A
N563        C564   1.365       .  A
C564        C565   1.411       .  A
C564        H567   1.080       .  S
C565        C566   1.377       .  A
C565        C825   1.513       .  S
C566        H568   1.082       .  S
N569        N570   1.322       .  A
N569        C573   1.361       .  A
N569       Cu577   2.157       .  S
N570        C571   1.339       .  A
N570       Cu576   2.045       .  S
C571        C572   1.378       .  A
C571        H574   1.078       .  S
C572        C573   1.407       .  A
C572        C809   1.506       .  S
C573        H575   1.082       .  S
Cu576       N579   2.044       .  S
Cu577       N587   2.157       .  S
Cu578       N580   2.053       .  S
Cu578       N586   2.052       .  S
N579        N580   1.318       .  A
N579        C583   1.342       .  A
N580        C581   1.341       .  A
C581        C582   1.381       .  A
C581        H584   1.082       .  S
C582        C583   1.380       .  A
C582        C758   1.466       .  S
C583        H585   1.081       .  S
N586        N587   1.324       .  A
N586        C590   1.340       .  A
N587        C588   1.362       .  A
C588        C589   1.403       .  A
C588        H591   1.082       .  S
C589        C590   1.375       .  A
C589        C873   1.498       .  S
C590        H592   1.082       .  S
N593        N594   1.325       .  A
N593        C597   1.362       .  A
N593       Cu601   2.167   1_455  S
N594        C595   1.337       .  A
N594       Cu600   2.037       .  S
C595        C596   1.373       .  A
C595        H598   1.081       .  S
C596        C597   1.406       .  A
C596        C857   1.500       .  S
C597        H599   1.082       .  S
Cu600       N603   2.037       .  S
Cu601       N611   2.167       .  S
Cu602       N604   2.050       .  S
Cu602       N610   2.053       .  S
N603        N604   1.314   1_455  A
N603        C607   1.340       .  A
N604        C605   1.340       .  A
C605        C606   1.387       .  A
C605        H608   1.082       .  S
C606        C607   1.383   1_655  A
C606       C1174   1.473       .  S
C607        H609   1.081       .  S
N610        N611   1.324       .  A
N610        C614   1.336       .  A
N611        C612   1.365       .  A
C612        C613   1.410       .  A
C612        H615   1.080       .  S
C613        C614   1.379       .  A
C613        C969   1.512       .  S
C614        H616   1.082       .  S
N617        N618   1.325       .  A
N617        C621   1.363       .  A
N617       Cu625   2.170       .  S
N618        C619   1.341       .  A
N618       Cu624   2.048       .  S
C619        C620   1.372       .  A
C619        H622   1.082       .  S
C620        C621   1.404       .  A
C620       C1017   1.497       .  S
C621        H623   1.082       .  S
Cu624       N627   2.046       .  S
Cu625       N635   2.170   1_545  S
Cu626       N628   2.051       .  S
Cu626       N634   2.054       .  S
N627        N628   1.316   1_545  A
N627        C631   1.341       .  A
N628        C629   1.340       .  A
C629        C630   1.385   1_565  A
C629        H632   1.082       .  S
C630        C631   1.383       .  A
C630       C1446   1.469       .  S
C631        H633   1.082       .  S
N634        N635   1.326       .  A
N634        C638   1.342       .  A
N635        C636   1.362       .  A
C636        C637   1.404       .  A
C636        H639   1.082       .  S
C637        C638   1.374       .  A
C637        C953   1.498       .  S
C638        H640   1.082       .  S
N641        N642   1.325       .  A
N641        C645   1.362       .  A
N641       Cu649   2.161   1_455  S
N642        C643   1.343       .  A
N642       Cu648   2.059       .  S
C643        C644   1.378       .  A
C643        H646   1.082       .  S
C644        C645   1.402       .  A
C644        C742   1.500       .  S
C645        H647   1.082       .  S
Cu648       N651   2.057       .  S
Cu649       N659   2.161       .  S
Cu650       N652   2.048       .  S
Cu650       N658   2.050       .  S
N651        N652   1.318   1_455  A
N651        C655   1.340       .  A
N652        C653   1.344       .  A
C653        C654   1.383       .  A
C653        H656   1.080       .  S
C654        C655   1.382   1_655  A
C654       C1193   1.474       .  S
C655        H657   1.082       .  S
N658        N659   1.325       .  A
N658        C662   1.342       .  A
N659        C660   1.359       .  A
C660        C661   1.403       .  A
C660        H663   1.082       .  S
C661        C662   1.375       .  A
C661       C1321   1.497       .  S
C662        H664   1.081       .  S
C665        H666   1.109       .  S
C665        C671   1.552       .  S
C665        C670   1.543       .  S
C665        C669   1.561       .  S
C667        H668   1.099       .  S
C667        C673   1.575       .  S
C667        C672   1.558       .  S
C667        C674   1.593       .  S
C669        C672   1.389       .  D
C669        C777   1.531       .  S
C670        C673   1.392       .  D
C670       C1273   1.515       .  S
C671        C674   1.392       .  D
C671       C1126   1.528       .  S
C672       C1734   1.529       .  S
C673       C1689   1.550       .  S
C674        C745   1.557       .  S
N675        N676   1.324       .  A
N675        C679   1.358       .  A
N675       Cu683   2.164   1_554  S
N676        C677   1.345       .  A
N676       Cu682   2.059       .  S
C677        C678   1.383       .  A
C677        H680   1.077       .  S
C678        C679   1.407       .  A
C678       C1366   1.513       .  S
C679        H681   1.082       .  S
Cu682       N685   2.058   1_554  S
Cu683       N693   2.163       .  S
Cu684       N686   2.060       .  S
Cu684       N692   2.060       .  S
N685        N686   1.318       .  A
N685        C689   1.343   1_556  A
N686        C687   1.342       .  A
C687        C688   1.386       .  A
C687        H690   1.081       .  S
C688        C689   1.386   1_556  A
C688       C1529   1.482       .  S
C689        H691   1.082       .  S
N692        N693   1.324       .  A
N692        C696   1.344       .  A
N693        C694   1.362       .  A
C694        C695   1.404       .  A
C694        H697   1.082       .  S
C695        C696   1.378       .  A
C695        C937   1.503       .  S
C696        H698   1.082       .  S
O699       Cu707   1.982       .  S
O699        C709   1.272       .  A
O700       Cu707   1.985   1_556  S
O700        C710   1.274       .  A
O701       Cu707   2.015   1_556  S
O701        C711   1.278       .  A
O702       Cu707   2.015       .  S
O702        C712   1.280       .  A
O703       Cu708   1.978       .  S
O703        C712   1.272       .  A
O704       Cu708   1.974   1_556  S
O704        C711   1.274       .  A
O705       Cu708   1.997   1_556  S
O705        C710   1.276       .  A
O706       Cu708   1.996       .  S
O706        C709   1.279       .  A
Cu707      Cu708   2.373       .  S
C709       C1337   1.485       .  S
C710       C1785   1.456       .  S
C711       C1001   1.469       .  S
C712        C793   1.474       .  S
O713       Cu721   2.004   1_565  S
O713        C723   1.278       .  A
O714       Cu721   2.000       .  S
O714        C724   1.276       .  A
O715       Cu721   1.998       .  S
O715        C725   1.277       .  A
O716       Cu721   2.004       .  S
O716        C726   1.279       .  A
O717       Cu722   2.001       .  S
O717        C726   1.275       .  A
O718       Cu722   2.002       .  S
O718        C725   1.276       .  A
O719       Cu722   2.002       .  S
O719        C724   1.276       .  A
O720       Cu722   2.005   1_565  S
O720        C723   1.276       .  A
Cu721      Cu722   2.371       .  S
C723        C905   1.480       .  S
C724       C1286   1.466       .  S
C725       C1049   1.474       .  S
C726       C1833   1.489   1_545  S
O727       Cu735   1.989       .  S
O727        C737   1.275       .  A
O728       Cu735   1.998   1_455  S
O728        C738   1.274       .  A
O729       Cu735   2.006   1_455  S
O729        C739   1.276       .  A
O730       Cu735   2.002       .  S
O730        C740   1.277       .  A
O731       Cu736   1.995       .  S
O731        C740   1.275       .  A
O732       Cu736   1.998   1_455  S
O732        C739   1.277       .  A
O733       Cu736   1.999   1_455  S
O733        C738   1.279       .  A
O734       Cu736   1.999       .  S
O734        C737   1.276       .  A
Cu735      Cu736   2.374       .  S
C737       C1641   1.459       .  S
C738       C1158   1.485       .  S
C739        C761   1.480       .  S
C740       C1881   1.466       .  S
C741        C742   1.401       .  A
C741        C746   1.424       .  A
C741        H748   1.087       .  S
C742        C743   1.414       .  A
C743        C744   1.407       .  A
C743        C750   1.521       .  S
C744        C745   1.413       .  A
C744        H749   1.083       .  S
C745        C746   1.446       .  A
C746        C747   1.518       .  S
C747        F751   1.385       .  S
C747        F752   1.374       .  S
C747        F753   1.383       .  S
C750        F754   1.381       .  S
C750        F755   1.383       .  S
C750        F756   1.383       .  S
C757        C758   1.399       .  A
C757        C762   1.405       .  A
C757        H764   1.084       .  S
C758        C759   1.413       .  A
C759        C760   1.401       .  A
C759        C766   1.520       .  S
C760        C761   1.405       .  A
C760        H765   1.083       .  S
C761        C762   1.419       .  A
C762        C763   1.515       .  S
C763        F767   1.385       .  S
C763        F768   1.381       .  S
C763        F769   1.382       .  S
C766        F770   1.381       .  S
C766        F771   1.384       .  S
C766        F772   1.385       .  S
C773        C774   1.399       .  A
C773        C778   1.417       .  A
C773        H780   1.085       .  S
C774        C775   1.419       .  A
C775        C776   1.420       .  A
C775        C782   1.517       .  S
C776        C777   1.412       .  A
C776        H781   1.081       .  S
C777        C778   1.436       .  A
C778        C779   1.515       .  S
C779        F783   1.385       .  S
C779        F784   1.369       .  S
C779        F785   1.382       .  S
C782        F786   1.384       .  S
C782        F787   1.382       .  S
C782        F788   1.385       .  S
C789        C790   1.398       .  A
C789        C794   1.401       .  A
C789        H796   1.083       .  S
C790        C791   1.412       .  A
C791        C792   1.405       .  A
C791        C798   1.517       .  S
C792        C793   1.404       .  A
C792        H797   1.082       .  S
C793        C794   1.422       .  A
C794        C795   1.523       .  S
C795        F799   1.385       .  S
C795        F800   1.383       .  S
C795        F801   1.383       .  S
C798        F802   1.384       .  S
C798        F803   1.381       .  S
C798        F804   1.384       .  S
C805        C806   1.404       .  A
C805        C810   1.410       .  A
C805        H812   1.084       .  S
C806        C807   1.433       .  A
C807        C808   1.415       .  A
C807        C814   1.516       .  S
C808        C809   1.402       .  A
C808        H813   1.084       .  S
C809        C810   1.426       .  A
C810        C811   1.520       .  S
C811        F815   1.386       .  S
C811        F816   1.382       .  S
C811        F817   1.383       .  S
C814        F818   1.383       .  S
C814        F819   1.368       .  S
C814        F820   1.384       .  S
C821        C822   1.410       .  A
C821        C826   1.421       .  A
C821        H828   1.081       .  S
C822        C823   1.422       .  A
C823        C824   1.420       .  A
C823        C830   1.519       .  S
C824        C825   1.411       .  A
C824        H829   1.083       .  S
C825        C826   1.419       .  A
C826        C827   1.515       .  S
C827        F831   1.384       .  S
C827        F832   1.382       .  S
C827        F833   1.383       .  S
C830        F834   1.381       .  S
C830        F835   1.375       .  S
C830        F836   1.384       .  S
C837        C838   1.402       .  A
C837        C842   1.420       .  A
C837        H844   1.085       .  S
C838        C839   1.419       .  A
C839        C840   1.418       .  A
C839        C846   1.518       .  S
C840        C841   1.413       .  A
C840        H845   1.082       .  S
C841        C842   1.434       .  A
C842        C843   1.516       .  S
C843        F847   1.384       .  S
C843        F848   1.383       .  S
C843        F849   1.371       .  S
C846        F850   1.383       .  S
C846        F851   1.382       .  S
C846        F852   1.385       .  S
C853        C854   1.407       .  A
C853        C858   1.409       .  A
C853        H860   1.084       .  S
C854        C855   1.438       .  A
C855        C856   1.418       .  A
C855        C862   1.516       .  S
C856        C857   1.398       .  A
C856        H861   1.083       .  S
C857        C858   1.422       .  A
C858        C859   1.520       .  S
C859        F863   1.385       .  S
C859        F864   1.383       .  S
C859        F865   1.382       .  S
C862        F866   1.372       .  S
C862        F867   1.379       .  S
C862        F868   1.385       .  S
C869        C870   1.413       .  A
C869        C874   1.418       .  A
C869        H876   1.083       .  S
C870        C871   1.429       .  A
C871        C872   1.411       .  A
C871        C878   1.519       .  S
C872        C873   1.403       .  A
C872        H877   1.085       .  S
C873        C874   1.415       .  A
C874        C875   1.515       .  S
C875        F879   1.383       .  S
C875        F880   1.383       .  S
C875        F881   1.384       .  S
C878        F882   1.373       .  S
C878        F883   1.383       .  S
C878        F884   1.384       .  S
C885        C886   1.401       .  A
C885        C890   1.415       .  A
C885        H892   1.083       .  S
C886        C887   1.425       .  A
C887        C888   1.415       .  A
C887        C894   1.520       .  S
C888        C889   1.405       .  A
C888        H893   1.083       .  S
C889        C890   1.427       .  A
C890        C891   1.515       .  S
C891        F895   1.379       .  S
C891        F896   1.379       .  S
C891        F897   1.385       .  S
C894        F898   1.383       .  S
C894        F899   1.380       .  S
C894        F900   1.385       .  S
C901        C902   1.402       .  A
C901        C906   1.407       .  A
C901        H908   1.083       .  S
C902        C903   1.417       .  A
C903        C904   1.403       .  A
C903        C910   1.521       .  S
C904        C905   1.404       .  A
C904        H909   1.083       .  S
C905        C906   1.418       .  A
C906        C907   1.518       .  S
C907        F911   1.385       .  S
C907        F912   1.383       .  S
C907        F913   1.382       .  S
C910        F914   1.381       .  S
C910        F915   1.383       .  S
C910        F916   1.385       .  S
C917        C918   1.416       .  A
C917        C922   1.419       .  A
C917        H924   1.079       .  S
C918        C919   1.430       .  A
C919        C920   1.410       .  A
C919        C926   1.519       .  S
C920        C921   1.406       .  A
C920        H925   1.085       .  S
C921        C922   1.418       .  A
C922        C923   1.516       .  S
C923        F927   1.385       .  S
C923        F928   1.382       .  S
C923        F929   1.383       .  S
C926        F930   1.382       .  S
C926        F931   1.367       .  S
C926        F932   1.385       .  S
C933        C934   1.408       .  A
C933        C938   1.419       .  A
C933        H940   1.083       .  S
C934        C935   1.428       .  A
C935        C936   1.416       .  A
C935        C942   1.513       .  S
C936        C937   1.401       .  A
C936        H941   1.084       .  S
C937        C938   1.421       .  A
C938        C939   1.517       .  S
C939        F943   1.385       .  S
C939        F944   1.381       .  S
C939        F945   1.384       .  S
C942        F946   1.380       .  S
C942        F947   1.377       .  S
C942        F948   1.385       .  S
C949        C950   1.413       .  A
C949        C954   1.421       .  A
C949        H956   1.083       .  S
C950        C951   1.439       .  A
C951        C952   1.411       .  A
C951        C958   1.517       .  S
C952        C953   1.394       .  A
C952        H957   1.085       .  S
C953        C954   1.416       .  A
C954        C955   1.514       .  S
C955        F959   1.385       .  S
C955        F960   1.383       .  S
C955        F961   1.383       .  S
C958        F962   1.383       .  S
C958        F963   1.363       .  S
C958        F964   1.385       .  S
C965        C966   1.417       .  A
C965        C970   1.424       .  A
C965        H972   1.082       .  S
C966        C967   1.430       .  A
C967        C968   1.407       .  A
C967        C974   1.521       .  S
C968        C969   1.405       .  A
C968        H973   1.085       .  S
C969        C970   1.420       .  A
C970        C971   1.515       .  S
C971        F975   1.385       .  S
C971        F976   1.381       .  S
C971        F977   1.383       .  S
C974        F978   1.383       .  S
C974        F979   1.371       .  S
C974        F980   1.385       .  S
C981        C982   1.404       .  A
C981        C986   1.421       .  A
C981        H988   1.083       .  S
C982        C983   1.416       .  A
C983        C984   1.418       .  A
C983        C990   1.516       .  S
C984        C985   1.412       .  A
C984        H989   1.083       .  S
C985        C986   1.430       .  A
C986        C987   1.518       .  S
C987        F991   1.379       .  S
C987        F992   1.377       .  S
C987        F993   1.385       .  S
C990        F994   1.383       .  S
C990        F995   1.383       .  S
C990        F996   1.384       .  S
C997        C998   1.404       .  A
C997       C1002   1.407       .  A
C997       H1004   1.083       .  S
C998        C999   1.416       .  A
C999       C1000   1.398       .  A
C999       C1006   1.521       .  S
C1000      C1001   1.401       .  A
C1000      H1005   1.084       .  S
C1001      C1002   1.415       .  A
C1002      C1003   1.518       .  S
C1003      F1007   1.385   1_556  S
C1003      F1008   1.382       .  S
C1003      F1009   1.384   1_556  S
C1006      F1010   1.383       .  S
C1006      F1011   1.381       .  S
C1006      F1012   1.385       .  S
C1013      C1014   1.407       .  A
C1013      C1018   1.411       .  A
C1013      H1020   1.077       .  S
C1014      C1015   1.425       .  A
C1015      C1016   1.421       .  A
C1015      C1022   1.520       .  S
C1016      C1017   1.407       .  A
C1016      H1021   1.083       .  S
C1017      C1018   1.414       .  A
C1018      C1019   1.517       .  S
C1019      F1023   1.385       .  S
C1019      F1024   1.383       .  S
C1019      F1025   1.383       .  S
C1022      F1026   1.380       .  S
C1022      F1027   1.378       .  S
C1022      F1028   1.385       .  S
C1029      C1030   1.412       .  A
C1029      C1034   1.416       .  A
C1029      H1036   1.083       .  S
C1030      C1031   1.424       .  A
C1031      C1032   1.415       .  A
C1031      C1038   1.521       .  S
C1032      C1033   1.406       .  A
C1032      H1037   1.083       .  S
C1033      C1034   1.416       .  A
C1034      C1035   1.516       .  S
C1035      F1039   1.385       .  S
C1035      F1040   1.384       .  S
C1035      F1041   1.382       .  S
C1038      F1042   1.379       .  S
C1038      F1043   1.379       .  S
C1038      F1044   1.385       .  S
C1045      C1046   1.402       .  A
C1045      C1050   1.406       .  A
C1045      H1052   1.084       .  S
C1046      C1047   1.419       .  A
C1047      C1048   1.403       .  A
C1047      C1054   1.521       .  S
C1048      C1049   1.401       .  A
C1048      H1053   1.083       .  S
C1049      C1050   1.416       .  A
C1050      C1051   1.519       .  S
C1051      F1055   1.385       .  S
C1051      F1056   1.384   1_545  S
C1051      F1057   1.382       .  S
C1054      F1058   1.381       .  S
C1054      F1059   1.383       .  S
C1054      F1060   1.385       .  S
C1061      C1062   1.409       .  A
C1061      C1066   1.414       .  A
C1061      H1068   1.079       .  S
C1062      C1063   1.422       .  A
C1063      C1064   1.421       .  A
C1063      C1070   1.519       .  S
C1064      C1065   1.409       .  A
C1064      H1069   1.083       .  S
C1065      C1066   1.414       .  A
C1066      C1067   1.517       .  S
C1067      F1071   1.385       .  S
C1067      F1072   1.383       .  S
C1067      F1073   1.383       .  S
C1070      F1074   1.384       .  S
C1070      F1075   1.379       .  S
C1070      F1076   1.381       .  S
C1077      C1078   1.401       .  A
C1077      C1082   1.417       .  A
C1077      H1084   1.084       .  S
C1078      C1079   1.420       .  A
C1079      C1080   1.416       .  A
C1079      C1086   1.518       .  S
C1080      C1081   1.410       .  A
C1080      H1085   1.082       .  S
C1081      C1082   1.431       .  A
C1082      C1083   1.518       .  S
C1083      F1087   1.383       .  S
C1083      F1088   1.374       .  S
C1083      F1089   1.385       .  S
C1086      F1090   1.382       .  S
C1086      F1091   1.383       .  S
C1086      F1092   1.385       .  S
C1093      C1094   1.413       .  A
C1093      C1098   1.420       .  A
C1093      H1100   1.082       .  S
C1094      C1095   1.427       .  A
C1095      C1096   1.414       .  A
C1095      C1102   1.518       .  S
C1096      C1097   1.404       .  A
C1096      H1101   1.084       .  S
C1097      C1098   1.416       .  A
C1098      C1099   1.515       .  S
C1099      F1103   1.385       .  S
C1099      F1104   1.383       .  S
C1099      F1105   1.383       .  S
C1102      F1106   1.385       .  S
C1102      F1107   1.377       .  S
C1102      F1108   1.382       .  S
C1109      C1110   1.401       .  A
C1109      C1114   1.418       .  A
C1109      H1116   1.084       .  S
C1110      C1111   1.424       .  A
C1111      C1112   1.415       .  A
C1111      C1118   1.520       .  S
C1112      C1113   1.409       .  A
C1112      H1117   1.083       .  S
C1113      C1114   1.438       .  A
C1114      C1115   1.519       .  S
C1115      F1119   1.382       .  S
C1115      F1120   1.374       .  S
C1115      F1121   1.385       .  S
C1118      F1122   1.381       .  S
C1118      F1123   1.384       .  S
C1118      F1124   1.385       .  S
C1125      C1126   1.414       .  A
C1125      C1130   1.414       .  A
C1125      H1132   1.082       .  S
C1126      C1127   1.433       .  A
C1127      C1128   1.415       .  A
C1127      C1134   1.513       .  S
C1128      C1129   1.397       .  A
C1128      H1133   1.083       .  S
C1129      C1130   1.415       .  A
C1130      C1131   1.518       .  S
C1131      F1135   1.385       .  S
C1131      F1136   1.383       .  S
C1131      F1137   1.382       .  S
C1134      F1138   1.375       .  S
C1134      F1139   1.377       .  S
C1134      F1140   1.385       .  S
C1141      C1142   1.406       .  A
C1141      C1146   1.417       .  A
C1141      H1148   1.083       .  S
C1142      C1143   1.413       .  A
C1143      C1144   1.410       .  A
C1143      C1150   1.517       .  S
C1144      C1145   1.409       .  A
C1144      H1149   1.078       .  S
C1145      C1146   1.423       .  A
C1146      C1147   1.519       .  S
C1147      F1151   1.385       .  S
C1147      F1152   1.379       .  S
C1147      F1153   1.379       .  S
C1150      F1154   1.382       .  S
C1150      F1155   1.383       .  S
C1150      F1156   1.385       .  S
C1157      C1158   1.405       .  A
C1157      C1162   1.399       .  A
C1157      H1164   1.085       .  S
C1158      C1159   1.423       .  A
C1159      C1160   1.406       .  A
C1159      C1166   1.520       .  S
C1160      C1161   1.403       .  A
C1160      H1165   1.082       .  S
C1161      C1162   1.415       .  A
C1162      C1163   1.518       .  S
C1163      F1167   1.385       .  S
C1163      F1168   1.383       .  S
C1163      F1169   1.383       .  S
C1166      F1170   1.383       .  S
C1166      F1171   1.379       .  S
C1166      F1172   1.385       .  S
C1173      C1174   1.403       .  A
C1173      C1178   1.400       .  A
C1173      H1180   1.083       .  S
C1174      C1175   1.414   1_655  A
C1175      C1176   1.405       .  A
C1175      C1182   1.518       .  S
C1176      C1177   1.404   1_455  A
C1176      H1181   1.083       .  S
C1177      C1178   1.416       .  A
C1178      C1179   1.521       .  S
C1179      F1183   1.385       .  S
C1179      F1184   1.384       .  S
C1179      F1185   1.382       .  S
C1182      F1186   1.381       .  S
C1182      F1187   1.383       .  S
C1182      F1188   1.385   1_565  S
C1189      C1190   1.402       .  A
C1189      C1194   1.403       .  A
C1189      H1196   1.083       .  S
C1190      C1191   1.416       .  A
C1191      C1192   1.404       .  A
C1191      C1198   1.517   1_655  S
C1192      C1193   1.402       .  A
C1192      H1197   1.084   1_655  S
C1193      C1194   1.419       .  A
C1194      C1195   1.521       .  S
C1195      F1199   1.385       .  S
C1195      F1200   1.381       .  S
C1195      F1201   1.383       .  S
C1198      F1202   1.383   1_545  S
C1198      F1203   1.382       .  S
C1198      F1204   1.385   1_545  S
C1205      C1206   1.407       .  A
C1205      C1210   1.399       .  A
C1205      H1212   1.084       .  S
C1206      C1207   1.425   1_655  A
C1207      C1208   1.405       .  A
C1207      C1214   1.522       .  S
C1208      C1209   1.402   1_455  A
C1208      H1213   1.082       .  S
C1209      C1210   1.413       .  A
C1210      C1211   1.518       .  S
C1211      F1215   1.384       .  S
C1211      F1216   1.383       .  S
C1211      F1217   1.383       .  S
C1214      F1218   1.383       .  S
C1214      F1219   1.381       .  S
C1214      F1220   1.385       .  S
C1221      C1222   1.408       .  A
C1221      C1226   1.413       .  A
C1221      H1228   1.085       .  S
C1222      C1223   1.420       .  A
C1223      C1224   1.419       .  A
C1223      C1230   1.517       .  S
C1224      C1225   1.411       .  A
C1224      H1229   1.077       .  S
C1225      C1226   1.423       .  A
C1226      C1227   1.512       .  S
C1227      F1231   1.384       .  S
C1227      F1232   1.382       .  S
C1227      F1233   1.370       .  S
C1230      F1234   1.385       .  S
C1230      F1235   1.381       .  S
C1230      F1236   1.383       .  S
C1237      C1238   1.407       .  A
C1237      C1242   1.417       .  A
C1237      H1244   1.083       .  S
C1238      C1239   1.415       .  A
C1239      C1240   1.415       .  A
C1239      C1246   1.517       .  S
C1240      C1241   1.411       .  A
C1240      H1245   1.080       .  S
C1241      C1242   1.423       .  A
C1242      C1243   1.519       .  S
C1243      F1247   1.384       .  S
C1243      F1248   1.378       .  S
C1243      F1249   1.379       .  S
C1246      F1250   1.383       .  S
C1246      F1251   1.382       .  S
C1246      F1252   1.385       .  S
C1253      C1254   1.402       .  A
C1253      C1258   1.406       .  A
C1253      H1260   1.083       .  S
C1254      C1255   1.413   1_655  A
C1255      C1256   1.403   1_455  A
C1255      C1262   1.518       .  S
C1256      C1257   1.405       .  A
C1256      H1261   1.083   1_655  S
C1257      C1258   1.422       .  A
C1258      C1259   1.521       .  S
C1259      F1263   1.385       .  S
C1259      F1264   1.384       .  S
C1259      F1265   1.383       .  S
C1262      F1266   1.381       .  S
C1262      F1267   1.383       .  S
C1262      F1268   1.385       .  S
C1269      C1270   1.412       .  A
C1269      C1274   1.416       .  A
C1269      H1276   1.082       .  S
C1270      C1271   1.421       .  A
C1271      C1272   1.419       .  A
C1271      C1278   1.516       .  S
C1272      C1273   1.409       .  A
C1272      H1277   1.082       .  S
C1273      C1274   1.416       .  A
C1274      C1275   1.512       .  S
C1275      F1279   1.384       .  S
C1275      F1280   1.380       .  S
C1275      F1281   1.382       .  S
C1278      F1282   1.381       .  S
C1278      F1283   1.383       .  S
C1278      F1284   1.385       .  S
C1285      C1286   1.403       .  A
C1285      C1290   1.406       .  A
C1285      H1292   1.084       .  S
C1286      C1287   1.413       .  A
C1287      C1288   1.402       .  A
C1287      C1294   1.519       .  S
C1288      C1289   1.404       .  A
C1288      H1293   1.083       .  S
C1289      C1290   1.411       .  A
C1290      C1291   1.516       .  S
C1291      F1295   1.385       .  S
C1291      F1296   1.383       .  S
C1291      F1297   1.383       .  S
C1294      F1298   1.382       .  S
C1294      F1299   1.383       .  S
C1294      F1300   1.385       .  S
C1301      C1302   1.409       .  A
C1301      C1306   1.418       .  A
C1301      H1308   1.080       .  S
C1302      C1303   1.428       .  A
C1303      C1304   1.415       .  A
C1303      C1310   1.509       .  S
C1304      C1305   1.398       .  A
C1304      H1309   1.083       .  S
C1305      C1306   1.423       .  A
C1306      C1307   1.519       .  S
C1307      F1311   1.385       .  S
C1307      F1312   1.383       .  S
C1307      F1313   1.380       .  S
C1310      F1314   1.381       .  S
C1310      F1315   1.378       .  S
C1310      F1316   1.385       .  S
C1317      C1318   1.412       .  A
C1317      C1322   1.417       .  A
C1317      H1324   1.080       .  S
C1318      C1319   1.435       .  A
C1319      C1320   1.411       .  A
C1319      C1326   1.507       .  S
C1320      C1321   1.392       .  A
C1320      H1325   1.083       .  S
C1321      C1322   1.420       .  A
C1322      C1323   1.518       .  S
C1323      F1327   1.385       .  S
C1323      F1328   1.384       .  S
C1323      F1329   1.380       .  S
C1326      F1330   1.371       .  S
C1326      F1331   1.376       .  S
C1326      F1332   1.385       .  S
C1333      C1334   1.400       .  A
C1333      C1338   1.406       .  A
C1333      H1340   1.083       .  S
C1334      C1335   1.409       .  A
C1335      C1336   1.395       .  A
C1335      C1342   1.518       .  S
C1336      C1337   1.407       .  A
C1336      H1341   1.084       .  S
C1337      C1338   1.427       .  A
C1338      C1339   1.522       .  S
C1339      F1343   1.385       .  S
C1339      F1344   1.383       .  S
C1339      F1345   1.384       .  S
C1342      F1346   1.383       .  S
C1342      F1347   1.383       .  S
C1342      F1348   1.384       .  S
C1349      C1350   1.391       .  A
C1349      C1354   1.411       .  A
C1349      H1356   1.083       .  S
C1350      C1351   1.420       .  A
C1351      C1352   1.420       .  A
C1351      C1358   1.517       .  S
C1352      C1353   1.413       .  A
C1352      H1357   1.079       .  S
C1353      C1354   1.437       .  A
C1354      C1355   1.510       .  S
C1355      F1359   1.385       .  S
C1355      F1360   1.372       .  S
C1355      F1361   1.378       .  S
C1358      F1362   1.383       .  S
C1358      F1363   1.381       .  S
C1358      F1364   1.385       .  S
C1365      C1366   1.396       .  A
C1365      C1370   1.410       .  A
C1365      H1372   1.085       .  S
C1366      C1367   1.429       .  A
C1367      C1368   1.423       .  A
C1367      C1374   1.519       .  S
C1368      C1369   1.409       .  A
C1368      H1373   1.075       .  S
C1369      C1370   1.437       .  A
C1370      C1371   1.509       .  S
C1371      F1375   1.385       .  S
C1371      F1376   1.360       .  S
C1371      F1377   1.382       .  S
C1374      F1378   1.383       .  S
C1374      F1379   1.381       .  S
C1374      F1380   1.385       .  S
C1381      C1382   1.412       .  A
C1381      C1386   1.422       .  A
C1381      H1388   1.075       .  S
C1382      C1383   1.418       .  A
C1383      C1384   1.412       .  A
C1383      C1390   1.502       .  S
C1384      C1385   1.407       .  A
C1384      H1389   1.082       .  S
C1385      C1386   1.419       .  A
C1386      C1387   1.516       .  S
C1387      F1391   1.385       .  S
C1387      F1392   1.383       .  S
C1387      F1393   1.380       .  S
C1390      F1394   1.381       .  S
C1390      F1395   1.378       .  S
C1390      F1396   1.385       .  S
C1397      C1398   1.421       .  A
C1397      C1402   1.421       .  A
C1397      H1404   1.076       .  S
C1398      C1399   1.446       .  A
C1399      C1400   1.417       .  A
C1399      C1406   1.519       .  S
C1400      C1401   1.396       .  A
C1400      H1405   1.085       .  S
C1401      C1402   1.411       .  A
C1402      C1403   1.516       .  S
C1403      F1407   1.384       .  S
C1403      F1408   1.383       .  S
C1403      F1409   1.383       .  S
C1406      F1410   1.364       .  S
C1406      F1411   1.383       .  S
C1406      F1412   1.385       .  S
C1413      C1414   1.405       .  A
C1413      C1418   1.409       .  A
C1413      H1420   1.084       .  S
C1414      C1415   1.415       .  A
C1415      C1416   1.417       .  A
C1415      C1422   1.516       .  S
C1416      C1417   1.413       .  A
C1416      H1421   1.077       .  S
C1417      C1418   1.424       .  A
C1418      C1419   1.515       .  S
C1419      F1423   1.385       .  S
C1419      F1424   1.374       .  S
C1419      F1425   1.382       .  S
C1422      F1426   1.383       .  S
C1422      F1427   1.382       .  S
C1422      F1428   1.385       .  S
C1429      C1430   1.403       .  A
C1429      C1434   1.413       .  A
C1429      H1436   1.085       .  S
C1430      C1431   1.414       .  A
C1431      C1432   1.416       .  A
C1431      C1438   1.517       .  S
C1432      C1433   1.414       .  A
C1432      H1437   1.079       .  S
C1433      C1434   1.433       .  A
C1434      C1435   1.516       .  S
C1435      F1439   1.383       .  S
C1435      F1440   1.366       .  S
C1435      F1441   1.384       .  S
C1438      F1442   1.383       .  S
C1438      F1443   1.382       .  S
C1438      F1444   1.384       .  S
C1445      C1446   1.404   1_565  A
C1445      C1450   1.400       .  A
C1445      H1452   1.083       .  S
C1446      C1447   1.411       .  A
C1447      C1448   1.404       .  A
C1447      C1454   1.517       .  S
C1448      C1449   1.403       .  A
C1448      H1453   1.083       .  S
C1449      C1450   1.412   1_545  A
C1450      C1451   1.520       .  S
C1451      F1455   1.384       .  S
C1451      F1456   1.382       .  S
C1451      F1457   1.384   1_565  S
C1454      F1458   1.383       .  S
C1454      F1459   1.382       .  S
C1454      F1460   1.385       .  S
C1461      C1462   1.409   1_565  A
C1461      C1466   1.399       .  A
C1461      H1468   1.084       .  S
C1462      C1463   1.425       .  A
C1463      C1464   1.405       .  A
C1463      C1470   1.522       .  S
C1464      C1465   1.401   1_545  A
C1464      H1469   1.083       .  S
C1465      C1466   1.412       .  A
C1466      C1467   1.519       .  S
C1467      F1471   1.384       .  S
C1467      F1472   1.383       .  S
C1467      F1473   1.383       .  S
C1470      F1474   1.384       .  S
C1470      F1475   1.383       .  S
C1470      F1476   1.385       .  S
C1477      C1478   1.396       .  A
C1477      C1482   1.414       .  A
C1477      H1484   1.083       .  S
C1478      C1479   1.425       .  A
C1479      C1480   1.419       .  A
C1479      C1486   1.518       .  S
C1480      C1481   1.408       .  A
C1480      H1485   1.082       .  S
C1481      C1482   1.433       .  A
C1482      C1483   1.512       .  S
C1483      F1487   1.385       .  S
C1483      F1488   1.376       .  S
C1483      F1489   1.378       .  S
C1486      F1490   1.384       .  S
C1486      F1491   1.380       .  S
C1486      F1492   1.385       .  S
C1493      C1494   1.405       .  A
C1493      C1498   1.426       .  A
C1493      H1500   1.083       .  S
C1494      C1495   1.420       .  A
C1495      C1496   1.412       .  A
C1495      C1502   1.520       .  S
C1496      C1497   1.405       .  A
C1496      H1501   1.068       .  S
C1497      C1498   1.429       .  A
C1498      C1499   1.508       .  S
C1499      F1503   1.385       .  S
C1499      F1504   1.374       .  S
C1499      F1505   1.381       .  S
C1502      F1506   1.383       .  S
C1502      F1507   1.382       .  S
C1502      F1508   1.383       .  S
C1509      C1510   1.404   1_565  A
C1509      C1514   1.404       .  A
C1509      H1516   1.081       .  S
C1510      C1511   1.417       .  A
C1511      C1512   1.404       .  A
C1511      C1518   1.518       .  S
C1512      C1513   1.405       .  A
C1512      H1517   1.085   1_554  S
C1513      C1514   1.421   1_545  A
C1514      C1515   1.522       .  S
C1515      F1519   1.385       .  S
C1515      F1520   1.383       .  S
C1515      F1521   1.384       .  S
C1518      F1522   1.382       .  S
C1518      F1523   1.383       .  S
C1518      F1524   1.384   1_554  S
C1525      C1526   1.409   1_556  A
C1525      C1530   1.402       .  A
C1525      H1532   1.084       .  S
C1526      C1527   1.425       .  A
C1527      C1528   1.408       .  A
C1527      C1534   1.521       .  S
C1528      C1529   1.405   1_554  A
C1528      H1533   1.082       .  S
C1529      C1530   1.415       .  A
C1530      C1531   1.520       .  S
C1531      F1535   1.384       .  S
C1531      F1536   1.383       .  S
C1531      F1537   1.383       .  S
C1534      F1538   1.383       .  S
C1534      F1539   1.383       .  S
C1534      F1540   1.385       .  S
C1541      C1542   1.402       .  A
C1541      C1546   1.404       .  A
C1541      H1548   1.083       .  S
C1542      C1543   1.411   1_554  A
C1543      C1544   1.403       .  A
C1543      C1550   1.519       .  S
C1544      C1545   1.408   1_556  A
C1544      H1549   1.083       .  S
C1545      C1546   1.420       .  A
C1546      C1547   1.520       .  S
C1547      F1551   1.385       .  S
C1547      F1552   1.384       .  S
C1547      F1553   1.383       .  S
C1550      F1554   1.381       .  S
C1550      F1555   1.383       .  S
C1550      F1556   1.385       .  S
C1557      C1558   1.413       .  A
C1557      C1562   1.416       .  A
C1557      H1564   1.082       .  S
C1558      C1559   1.419       .  A
C1559      C1560   1.417       .  A
C1559      C1566   1.517       .  S
C1560      C1561   1.407       .  A
C1560      H1565   1.076       .  S
C1561      C1562   1.417       .  A
C1562      C1563   1.516       .  S
C1563      F1567   1.379       .  S
C1563      F1568   1.380       .  S
C1563      F1569   1.384       .  S
C1566      F1570   1.381       .  S
C1566      F1571   1.383       .  S
C1566      F1572   1.385       .  S
C1573      C1574   1.405       .  A
C1573      C1578   1.410       .  A
C1573      H1580   1.085       .  S
C1574      C1575   1.419       .  A
C1575      C1576   1.423       .  A
C1575      C1582   1.515       .  S
C1576      C1577   1.416       .  A
C1576      H1581   1.080       .  S
C1577      C1578   1.429       .  A
C1578      C1579   1.520       .  S
C1579      F1583   1.382       .  S
C1579      F1584   1.384       .  S
C1579      F1585   1.371       .  S
C1582      F1586   1.383       .  S
C1582      F1587   1.382       .  S
C1582      F1588   1.385       .  S
C1589      C1590   1.403       .  A
C1589      C1594   1.409       .  A
C1589      H1596   1.083       .  S
C1590      C1591   1.414   1_554  A
C1591      C1592   1.398       .  A
C1591      C1598   1.521       .  S
C1592      C1593   1.404   1_556  A
C1592      H1597   1.083       .  S
C1593      C1594   1.417       .  A
C1594      C1595   1.517       .  S
C1595      F1599   1.382       .  S
C1595      F1600   1.383   1_455  S
C1595      F1601   1.385       .  S
C1598      F1602   1.383       .  S
C1598      F1603   1.381       .  S
C1598      F1604   1.385       .  S
C1605      C1606   1.397       .  A
C1605      C1610   1.421       .  A
C1605      H1612   1.083       .  S
C1606      C1607   1.418       .  A
C1607      C1608   1.419       .  A
C1607      C1614   1.517       .  S
C1608      C1609   1.414       .  A
C1608      H1613   1.082       .  S
C1609      C1610   1.445       .  A
C1610      C1611   1.520       .  S
C1611      F1615   1.385       .  S
C1611      F1616   1.380       .  S
C1611      F1617   1.368       .  S
C1614      F1618   1.382       .  S
C1614      F1619   1.384       .  S
C1614      F1620   1.384       .  S
C1621      C1622   1.402       .  A
C1621      C1626   1.425       .  A
C1621      H1628   1.084       .  S
C1622      C1623   1.417       .  A
C1623      C1624   1.416       .  A
C1623      C1630   1.520       .  S
C1624      C1625   1.416       .  A
C1624      H1629   1.076       .  S
C1625      C1626   1.440       .  A
C1626      C1627   1.520       .  S
C1627      F1631   1.385       .  S
C1627      F1632   1.378       .  S
C1627      F1633   1.383       .  S
C1630      F1634   1.381       .  S
C1630      F1635   1.383       .  S
C1630      F1636   1.385       .  S
C1637      C1638   1.399       .  A
C1637      C1642   1.403       .  A
C1637      H1644   1.083       .  S
C1638      C1639   1.416       .  A
C1639      C1640   1.401       .  A
C1639      C1646   1.520       .  S
C1640      C1641   1.398       .  A
C1640      H1645   1.084       .  S
C1641      C1642   1.412       .  A
C1642      C1643   1.516       .  S
C1643      F1647   1.384   1_655  S
C1643      F1648   1.381   1_655  S
C1643      F1649   1.383   1_655  S
C1646      F1650   1.382       .  S
C1646      F1651   1.383       .  S
C1646      F1652   1.385       .  S
C1653      C1654   1.408       .  A
C1653      C1658   1.420       .  A
C1653      H1660   1.083       .  S
C1654      C1655   1.414       .  A
C1655      C1656   1.414       .  A
C1655      C1662   1.517       .  S
C1656      C1657   1.413       .  A
C1656      H1661   1.079       .  S
C1657      C1658   1.424       .  A
C1658      C1659   1.518       .  S
C1659      F1663   1.385       .  S
C1659      F1664   1.379       .  S
C1659      F1665   1.377       .  S
C1662      F1666   1.382       .  S
C1662      F1667   1.383       .  S
C1662      F1668   1.385       .  S
C1669      C1670   1.401   1_545  A
C1669      C1674   1.405       .  A
C1669      H1676   1.083       .  S
C1670      C1671   1.415       .  A
C1671      C1672   1.402       .  A
C1671      C1678   1.520       .  S
C1672      C1673   1.403       .  A
C1672      H1677   1.084       .  S
C1673      C1674   1.415   1_565  A
C1674      C1675   1.518       .  S
C1675      F1679   1.385       .  S
C1675      F1680   1.382       .  S
C1675      F1681   1.384       .  S
C1678      F1682   1.383       .  S
C1678      F1683   1.381       .  S
C1678      F1684   1.385       .  S
C1685      C1686   1.397       .  A
C1685      C1690   1.418       .  A
C1685      H1692   1.082       .  S
C1686      C1687   1.426       .  A
C1687      C1688   1.417       .  A
C1687      C1694   1.519       .  S
C1688      C1689   1.410       .  A
C1688      H1693   1.077       .  S
C1689      C1690   1.439       .  A
C1690      C1691   1.509       .  S
C1691      F1695   1.385       .  S
C1691      F1696   1.380       .  S
C1691      F1697   1.367       .  S
C1694      F1698   1.382       .  S
C1694      F1699   1.382       .  S
C1694      F1700   1.385       .  S
C1701      C1702   1.406       .  A
C1701      C1706   1.414       .  A
C1701      H1708   1.085       .  S
C1702      C1703   1.418       .  A
C1703      C1704   1.420       .  A
C1703      C1710   1.517       .  S
C1704      C1705   1.415       .  A
C1704      H1709   1.081       .  S
C1705      C1706   1.427       .  A
C1706      C1707   1.518       .  S
C1707      F1711   1.382       .  S
C1707      F1712   1.373       .  S
C1707      F1713   1.385       .  S
C1710      F1714   1.382       .  S
C1710      F1715   1.383       .  S
C1710      F1716   1.385       .  S
C1717      C1718   1.403       .  A
C1717      C1722   1.404       .  A
C1717      H1724   1.084       .  S
C1718      C1719   1.416       .  A
C1719      C1720   1.403       .  A
C1719      C1726   1.519       .  S
C1720      C1721   1.400       .  A
C1720      H1725   1.083       .  S
C1721      C1722   1.411       .  A
C1722      C1723   1.516   1_554  S
C1723      F1727   1.385       .  S
C1723      F1728   1.383       .  S
C1723      F1729   1.383   1_556  S
C1726      F1730   1.383       .  S
C1726      F1731   1.382       .  S
C1726      F1732   1.385       .  S
C1733      C1734   1.414       .  A
C1733      C1738   1.419       .  A
C1733      H1740   1.081       .  S
C1734      C1735   1.433       .  A
C1735      C1736   1.415       .  A
C1735      C1742   1.513       .  S
C1736      C1737   1.398       .  A
C1736      H1741   1.085       .  S
C1737      C1738   1.417       .  A
C1738      C1739   1.516       .  S
C1739      F1743   1.385       .  S
C1739      F1744   1.382       .  S
C1739      F1745   1.383       .  S
C1742      F1746   1.369       .  S
C1742      F1747   1.382       .  S
C1742      F1748   1.385       .  S
C1749      C1750   1.401       .  A
C1749      C1754   1.421       .  A
C1749      H1756   1.083       .  S
C1750      C1751   1.423       .  A
C1751      C1752   1.412       .  A
C1751      C1758   1.520       .  S
C1752      C1753   1.407       .  A
C1752      H1757   1.084       .  S
C1753      C1754   1.434       .  A
C1754      C1755   1.516       .  S
C1755      F1759   1.380       .  S
C1755      F1760   1.376       .  S
C1755      F1761   1.385       .  S
C1758      F1762   1.382       .  S
C1758      F1763   1.384       .  S
C1758      F1764   1.385       .  S
C1765      C1766   1.401       .  A
C1765      C1770   1.416       .  A
C1765      H1772   1.084       .  S
C1766      C1767   1.430       .  A
C1767      C1768   1.415       .  A
C1767      C1774   1.521       .  S
C1768      C1769   1.406       .  A
C1768      H1773   1.084       .  S
C1769      C1770   1.435       .  A
C1770      C1771   1.515       .  S
C1771      F1775   1.383       .  S
C1771      F1776   1.385       .  S
C1771      F1777   1.365       .  S
C1774      F1778   1.383       .  S
C1774      F1779   1.382       .  S
C1774      F1780   1.386       .  S
C1781      C1782   1.402       .  A
C1781      C1786   1.397       .  A
C1781      H1788   1.084       .  S
C1782      C1783   1.410       .  A
C1783      C1784   1.405       .  A
C1783      C1790   1.515       .  S
C1784      C1785   1.402       .  A
C1784      H1789   1.084       .  S
C1785      C1786   1.409       .  A
C1786      C1787   1.518       .  S
C1787      F1791   1.384       .  S
C1787      F1792   1.383       .  S
C1787      F1793   1.382       .  S
C1790      F1794   1.385       .  S
C1790      F1795   1.383       .  S
C1790      F1796   1.383       .  S
C1797      C1798   1.405       .  A
C1797      C1802   1.421       .  A
C1797      H1804   1.083       .  S
C1798      C1799   1.413       .  A
C1799      C1800   1.410       .  A
C1799      C1806   1.518       .  S
C1800      C1801   1.409       .  A
C1800      H1805   1.077       .  S
C1801      C1802   1.428       .  A
C1802      C1803   1.518       .  S
C1803      F1807   1.381       .  S
C1803      F1808   1.379       .  S
C1803      F1809   1.385       .  S
C1806      F1810   1.383       .  S
C1806      F1811   1.383       .  S
C1806      F1812   1.385       .  S
C1813      C1814   1.405       .  A
C1813      C1818   1.416       .  A
C1813      H1820   1.083       .  S
C1814      C1815   1.435       .  A
C1815      C1816   1.408       .  A
C1815      C1822   1.514       .  S
C1816      C1817   1.395       .  A
C1816      H1821   1.085       .  S
C1817      C1818   1.421       .  A
C1818      C1819   1.516       .  S
C1819      F1823   1.385       .  S
C1819      F1824   1.384       .  S
C1819      F1825   1.381       .  S
C1822      F1826   1.383       .  S
C1822      F1827   1.374       .  S
C1822      F1828   1.381       .  S
C1829      C1830   1.404       .  A
C1829      C1834   1.406       .  A
C1829      H1836   1.080       .  S
C1830      C1831   1.415       .  A
C1831      C1832   1.402       .  A
C1831      C1838   1.518       .  S
C1832      C1833   1.408       .  A
C1832      H1837   1.084   1_565  S
C1833      C1834   1.424       .  A
C1834      C1835   1.521       .  S
C1835      F1839   1.385       .  S
C1835      F1840   1.383   1_565  S
C1835      F1841   1.382       .  S
C1838      F1842   1.383       .  S
C1838      F1843   1.383       .  S
C1838      F1844   1.384   1_565  S
C1845      C1846   1.412       .  A
C1845      C1850   1.411       .  A
C1845      H1852   1.082       .  S
C1846      C1847   1.422       .  A
C1847      C1848   1.418       .  A
C1847      C1854   1.516       .  S
C1848      C1849   1.409       .  A
C1848      H1853   1.076       .  S
C1849      C1850   1.419       .  A
C1850      C1851   1.516       .  S
C1851      F1855   1.381       .  S
C1851      F1856   1.385       .  S
C1851      F1857   1.377       .  S
C1854      F1858   1.383       .  S
C1854      F1859   1.381       .  S
C1854      F1860   1.385       .  S
C1861      C1862   1.396       .  A
C1861      C1866   1.415       .  A
C1861      H1868   1.083       .  S
C1862      C1863   1.420       .  A
C1863      C1864   1.413       .  A
C1863      C1870   1.518       .  S
C1864      C1865   1.410       .  A
C1864      H1869   1.080       .  S
C1865      C1866   1.434       .  A
C1866      C1867   1.513       .  S
C1867      F1871   1.385       .  S
C1867      F1872   1.376       .  S
C1867      F1873   1.378       .  S
C1870      F1874   1.383       .  S
C1870      F1875   1.381       .  S
C1870      F1876   1.385       .  S
C1877      C1878   1.402       .  A
C1877      C1882   1.403       .  A
C1877      H1884   1.083       .  S
C1878      C1879   1.409       .  A
C1879      C1880   1.404       .  A
C1879      C1886   1.516       .  S
C1880      C1881   1.403       .  A
C1880      H1885   1.084       .  S
C1881      C1882   1.415       .  A
C1882      C1883   1.519       .  S
C1883      F1887   1.385       .  S
C1883      F1888   1.383       .  S
C1883      F1889   1.382       .  S
C1886      F1890   1.383       .  S
C1886      F1891   1.384       .  S
C1886      F1892   1.384       .  S
