geometry optimzed in LAMMPS
_audit_creation_date              2020-11-30 
_audit_creation_method            'lammps2cif' 
_symmetry_space_group_name_H-M    'P1' 
_symmetry_Int_Tables_number       1 
_symmetry_cell_setting            triclinic 
loop_ 
_symmetry_equiv_pos_as_xyz 
  x,y,z 
_cell_length_a                    26.06407542958515 
_cell_length_b                    25.910569775260115 
_cell_length_c                    25.916043636389688 
_cell_angle_alpha                 86.95071954423037 
_cell_angle_beta                  90.88679796627153 
_cell_angle_gamma                 92.30134992891016 
loop_ 
_atom_site_label 
_atom_site_type_symbol 
_atom_site_fract_x 
_atom_site_fract_y 
_atom_site_fract_z 
_atom_site_charge 
C1          C  0.79684296  0.86968836  0.88945713     0.02550
C2          C  0.81638277  0.88959768  0.84169246    -0.13600
C3          C  0.85851009  0.86723893  0.81974903     0.00050
C4          C  0.88042843  0.82452509  0.84525123    -0.12120
C5          C  0.86127945  0.80383405  0.89239284     0.02540
C6          C  0.81953367  0.82668552  0.91466546    -0.11540
H7          H  0.79842081  0.92188801  0.82134176     0.08140
H8          H  0.91239333  0.80672213  0.82777284     0.05670
H9          H  0.80472244  0.81106085  0.95133457     0.05520
C10         C  0.79805183  0.65839111  0.34166467     0.02550
C11         C  0.82149745  0.70347495  0.35984613    -0.13600
C12         C  0.86591929  0.72568655  0.33640596     0.00050
C13         C  0.88694128  0.70194420  0.29428727    -0.12120
C14         C  0.86258159  0.65712037  0.27512207     0.02540
C15         C  0.81766464  0.63648434  0.29856556    -0.11540
H16         H  0.80567031  0.72079034  0.39298288     0.08140
H17         H  0.92250654  0.71743991  0.27753351     0.05670
H18         H  0.79845541  0.60219079  0.28401807     0.05520
O19         O  0.06015469  0.39714310  0.07947229    -0.81470
O20         O  0.99042802  0.60596150  0.98800538    -0.66160
O21         O  0.98938802  0.46488067  0.03574256    -1.12760
C22         C  0.05994742  0.44044618  0.87132973     1.05420
O23         O  0.95675653  0.58627719  0.91222674    -0.79370
O24         O  0.94064289  0.48759530  0.88873183    -0.66950
Ni25       Ni  0.01308002  0.44539319  0.10335574     1.34870
C26         C  0.92911126  0.44455994  0.91203816     0.84160
O27         O  0.95630304  0.55706588  0.07357650    -0.79900
O28         O  0.96884532  0.49286805  0.13327512    -0.90180
C29         C  0.96435667  0.61768206  0.94788481     0.83730
O30         O  0.06940528  0.49352480  0.10821959    -0.68380
O31         O  0.03910292  0.48267203  0.85709376    -0.87670
C32         C  0.08291811  0.53472988  0.08279749     0.84560
C33         C  0.95064177  0.53637639  0.11896591     1.06130
H34         H  0.06039735  0.52566234  0.95617619     0.37930
O35         O  0.02501612  0.51307009  0.95523058    -1.10330
O36         O  0.95837232  0.42263300  0.94587806    -0.66980
Ni37       Ni  0.02426374  0.44150463  0.97745157     1.26350
O38         O  0.05666088  0.55414344  0.04530955    -0.67210
O39         O  0.05867080  0.42081224  0.91754124    -0.79500
C40         C  0.05367578  0.36249090  0.04684157     0.83940
O41         O  0.02742182  0.37143119  0.00573719    -0.66680
Ni42       Ni  0.99929267  0.53322304  0.88827521     1.27450
Ni43       Ni  0.99091603  0.53612120  0.01402379     1.26060
H44         H  0.95394013  0.45259667  0.03410254     0.38490
C45         C  0.74883465  0.34588161  0.82139441     0.02550
C46         C  0.73273695  0.36447343  0.77199652    -0.13600
C47         C  0.69044269  0.34075656  0.74710132     0.00050
C48         C  0.66428569  0.29827518  0.77226255    -0.12120
C49         C  0.67794056  0.28102584  0.82280291     0.02540
C50         C  0.72035421  0.30542852  0.84700158    -0.11540
H51         H  0.75356448  0.39678159  0.75263863     0.08140
H52         H  0.63271393  0.27902950  0.75244239     0.05670
H53         H  0.73144895  0.29305846  0.88603819     0.05520
O54         O  0.52185220  0.05091249  0.10938647    -0.81470
O55         O  0.42377527  0.92815304  0.93802996    -0.66160
O56         O  0.51578500  0.97084848  0.04375527    -1.12760
C57         C  0.57593918  0.09651581  0.91603738     1.05460
O58         O  0.48569626  0.93290016  0.87999499    -0.79370
O59         O  0.58174800  0.96423178  0.90385840    -0.66950
Ni60       Ni  0.49303139  0.98180713  0.11111443     1.34870
C61         C  0.61063812  0.96374809  0.94369554     0.84160
O62         O  0.43871574  0.89304871  0.03605198    -0.79900
O63         O  0.46219345  0.91350959  0.11655149    -0.90180
C64         C  0.44293150  0.91387120  0.89663052     0.83730
O65         O  0.42808241  0.00982441  0.09494703    -0.68380
O66         O  0.55697129  0.06601726  0.88297427    -0.87670
C67         C  0.39995253  0.01183012  0.05470743     0.84560
C68         C  0.43910411  0.88390813  0.08516169     1.06130
H69         H  0.47208777  0.03475444  0.94969197     0.37930
O70         O  0.49709827  0.00822220  0.95326933    -1.10330
O71         O  0.60090690  0.98727476  0.98413534    -0.66980
Ni72       Ni  0.54546558  0.02895514  0.00497557     1.26350
O73         O  0.41207713  0.99254235  0.01261174    -0.67210
O74         O  0.57329197  0.08732410  0.96468121    -0.79500
C75         C  0.56885157  0.06215136  0.10176914     0.83940
O76         O  0.58936031  0.04878048  0.06076623    -0.66680
Ni77       Ni  0.52063119  0.99935653  0.88527666     1.27450
Ni78       Ni  0.46735673  0.94998783  0.99301910     1.26060
H79         H  0.54081713  0.94434173  0.04753774     0.38490
C80         C  0.21281738  0.10406186  0.11141231     0.02550
C81         C  0.19107706  0.14813458  0.08716120    -0.13600
C82         C  0.14780933  0.16924127  0.10828745     0.00050
C83         C  0.12496352  0.14483570  0.15203259    -0.12120
C84         C  0.14671859  0.10190328  0.17748904     0.02540
C85         C  0.19062103  0.08137565  0.15683999    -0.11540
H86         H  0.20896790  0.16707947  0.05336651     0.08140
H87         H  0.09154594  0.16136470  0.16814973     0.05670
H88         H  0.20866596  0.04906961  0.17707059     0.05520
C89         C  0.33152006  0.79212458  0.75014794     0.02550
C90         C  0.35166517  0.75094178  0.72472375    -0.13600
C91         C  0.33345063  0.73866311  0.67554388     0.00050
C92         C  0.29161509  0.76454624  0.65353991    -0.12120
C93         C  0.26974739  0.80437100  0.67914243     0.02540
C94         C  0.29058829  0.81857394  0.72679810    -0.11540
H95         H  0.38405652  0.73075773  0.74143718     0.08140
H96         H  0.27800632  0.75558954  0.61518987     0.05670
H97         H  0.27643054  0.85212001  0.74435793     0.05520
O98         O  0.09951155  0.04640364  0.41739081    -0.81470
O99         O  0.98421445  0.95872748  0.61589662    -0.66160
O100        O  0.04904361  0.97090093  0.48406250    -1.12760
C101        C  0.89026920  0.04217590  0.43376514     1.05420
O102        O  0.91595912  0.92040083  0.58108486    -0.79370
O103        O  0.90405897  0.91243131  0.47919323    -0.66950
Ni104      Ni  0.11669858  0.00203666  0.47684470     1.34870
C105        C  0.93254861  0.90734601  0.44078113     0.84160
O106        O  0.07503359  0.92993545  0.58266262    -0.79900
O107        O  0.14182741  0.95963930  0.53416211    -0.90180
C108        C  0.94239647  0.93224188  0.62059035     0.83730
O109        O  0.10823825  0.05869725  0.51939679    -0.68380
O110        O  0.87103035  0.01251811  0.46994137    -0.87670
C111        C  0.07959337  0.06504121  0.55742178     0.84560
C112        C  0.12254881  0.93217542  0.57184526     1.06130
H113        H  0.96145990  0.03368118  0.52987097     0.37930
O114        O  0.96348242  0.99934680  0.51736523    -1.10330
O115        O  0.96640518  0.94121172  0.42582862    -0.66980
Ni116      Ni  0.99360919  0.00588648  0.45064140     1.26350
O117        O  0.04562775  0.03160249  0.57366155    -0.67210
O118        O  0.93730575  0.04245845  0.42080646    -0.79500
C119        C  0.07014194  0.03626175  0.37938336     0.83940
O120        O  0.02710226  0.01262725  0.38565312    -0.66680
Ni121      Ni  0.89661468  0.96714064  0.52447907     1.27450
Ni122      Ni  0.01881984  0.96537598  0.55115737     1.26060
H123        H  0.05026005  0.93645994  0.47176435     0.38490
C124        C  0.68710247  0.17715972  0.25004502     0.02550
C125        C  0.72871230  0.15377585  0.27496238    -0.13600
C126        C  0.75016151  0.17386267  0.31996699     0.00050
C127        C  0.72840567  0.21695330  0.34067088    -0.12120
C128        C  0.68620320  0.24024845  0.31611815     0.02540
C129        C  0.66681896  0.22095419  0.26998468    -0.11540
H130        H  0.74213600  0.11796805  0.26122434     0.08140
H131        H  0.74254451  0.23056284  0.37726046     0.05670
H132        H  0.63332502  0.23772591  0.25148200     0.05520
C133        C  0.21151829  0.32063644  0.64489392     0.02550
C134        C  0.19085080  0.34347822  0.68711585    -0.13600
C135        C  0.14382992  0.32539038  0.70827176     0.00050
C136        C  0.11803291  0.28228553  0.68716050    -0.12120
C137        C  0.14041057  0.25668413  0.64718391     0.02540
C138        C  0.18629542  0.27702856  0.62515469    -0.11540
H139        H  0.21176882  0.37585363  0.70349534     0.08140
H140        H  0.08152311  0.26777606  0.70246456     0.05670
H141        H  0.20269901  0.25834275  0.59317070     0.05520
C142        C  0.26097681  0.63489912  0.17455517     0.02550
C143        C  0.28705041  0.67766062  0.14995771    -0.13600
C144        C  0.33207420  0.69897186  0.17189412     0.00050
C145        C  0.35046743  0.67757366  0.21915623    -0.12120
C146        C  0.32429602  0.63565139  0.24495159     0.02540
C147        C  0.28003557  0.61373636  0.22192007    -0.11540
H148        H  0.27234459  0.69423844  0.11369205     0.08140
H149        H  0.38533822  0.69388432  0.23616242     0.05670
H150        H  0.25995211  0.58089998  0.24119202     0.05520
O151        O  0.57212458  0.58191426  0.42632335    -0.81470
O152        O  0.39726551  0.45858310  0.52898377    -0.66160
O153        O  0.52565505  0.53104048  0.50996976    -1.12760
C154        C  0.56824193  0.37673432  0.43233124     1.05420
O155        O  0.43811840  0.39172918  0.56281724    -0.79370
O156        O  0.54026752  0.37990784  0.55932830    -0.66950
Ni157      Ni  0.53017712  0.59991109  0.48203084     1.34870
C158        C  0.57847273  0.41099227  0.56512202     0.84160
O159        O  0.43303203  0.55331556  0.55485856    -0.79900
O160        O  0.48792400  0.62117491  0.53590172    -0.90180
C161        C  0.39684920  0.41587798  0.55533461     0.83730
O162        O  0.47265100  0.59920652  0.43600397    -0.68380
O163        O  0.53210682  0.35477406  0.45925149    -0.87670
C164        C  0.43672376  0.56637873  0.42711364     0.84560
C165        C  0.44891746  0.60033159  0.55925067     1.06130
H166        H  0.47370056  0.44339010  0.44814768     0.37930
O167        O  0.48997927  0.44455709  0.48180453    -1.10330
O168        O  0.58742986  0.45096089  0.53524030    -0.66980
Ni169      Ni  0.55521991  0.47876582  0.47211831     1.26350
O170        O  0.42990028  0.52430752  0.45419062    -0.67210
O171        O  0.58179178  0.42453971  0.43416714    -0.79500
C172        C  0.61515460  0.56160221  0.43330847     0.83940
O173        O  0.61755963  0.51886594  0.45956925    -0.66680
Ni174      Ni  0.48557943  0.37571809  0.51017913     1.27450
Ni175      Ni  0.46017317  0.49760124  0.51847438     1.26060
H176        H  0.54191635  0.53151127  0.54372908     0.38490
C177        C  0.34432714  0.61515504  0.29569478    -0.06700
C178        C  0.35890282  0.56346602  0.30117258    -0.17830
C179        C  0.38747366  0.54547767  0.34445703     0.10500
C180        C  0.40128454  0.57966167  0.38357463    -0.06630
C181        C  0.38370589  0.63025286  0.37946399    -0.17860
C182        C  0.35489664  0.64802557  0.33669461     0.10530
S183        S  0.40876814  0.48016098  0.34529289    -0.32830
S184        S  0.33304305  0.71326254  0.33670010    -0.32830
H185        H  0.28914869  0.70445863  0.30564918     0.28540
H186        H  0.45881988  0.49274386  0.36284441     0.28530
H187        H  0.35087116  0.53788997  0.27004207     0.19120
H188        H  0.39298379  0.65648324  0.40979155     0.19130
C189        C  0.34871448  0.39317569  0.57857791    -0.06700
C190        C  0.34712781  0.34006896  0.59355070    -0.17830
C191        C  0.30350185  0.31552470  0.61569535     0.10500
C192        C  0.25906121  0.34385568  0.62144725    -0.06630
C193        C  0.26019051  0.39670093  0.60618531    -0.17860
C194        C  0.30445788  0.42183393  0.58586678     0.10530
S195        S  0.30814441  0.24880810  0.63807685    -0.32830
S196        S  0.30201262  0.49063996  0.57257809    -0.32830
H197        H  0.34900226  0.50113942  0.59784339     0.28540
H198        H  0.27877298  0.25331822  0.68256370     0.28530
H199        H  0.38051004  0.31727362  0.58871903     0.19120
H200        H  0.22639958  0.41891408  0.61113954     0.19130
C201        C  0.65669726  0.27855838  0.34248422    -0.06700
C202        C  0.60386354  0.26797464  0.34908720    -0.17830
C203        C  0.57361681  0.30081377  0.37536448     0.10500
C204        C  0.59685733  0.34442033  0.39825987    -0.06630
C205        C  0.64953986  0.35569982  0.39077685    -0.17860
C206        C  0.67945205  0.32378721  0.36254889     0.10530
S207        S  0.50547657  0.28547677  0.37652598    -0.32830
S208        S  0.74590555  0.34347192  0.35287515    -0.32830
H209        H  0.75004288  0.32168525  0.30463187     0.28540
H210        H  0.49121984  0.33729363  0.37040088     0.28530
H211        H  0.58580582  0.23357831  0.33360156     0.19120
H212        H  0.66778737  0.38933426  0.40752452     0.19130
C213        C  0.11930610  0.20602952  0.63107223    -0.06700
C214        C  0.07447752  0.20328846  0.60030606    -0.17830
C215        C  0.05894838  0.15717896  0.57705881     0.10500
C216        C  0.08875941  0.11294821  0.58514187    -0.06630
C217        C  0.13215342  0.11563360  0.61744693    -0.17860
C218        C  0.14705424  0.16089735  0.64129280     0.10530
S219        S  0.00233158  0.15808099  0.53609789    -0.32830
S220        S  0.20263717  0.15862937  0.68360737    -0.32830
H221        H  0.18779979  0.19734911  0.71565021     0.28540
H222        H  0.01619333  0.11946756  0.50351135     0.28530
H223        H  0.05291942  0.23778545  0.59238032     0.19120
H224        H  0.15543548  0.08242117  0.62349480     0.19130
C225        C  0.85606548  0.07870343  0.40598461    -0.06700
C226        C  0.86598730  0.09365115  0.35409856    -0.17830
C227        C  0.83399311  0.12719279  0.32591306     0.10500
C228        C  0.78975386  0.14482252  0.34935571    -0.06630
C229        C  0.78070940  0.13106609  0.40156261    -0.17860
C230        C  0.81393364  0.09970136  0.43040766     0.10530
S231        S  0.85242477  0.14677077  0.26073512    -0.32830
S232        S  0.80129307  0.09028122  0.49859882    -0.32830
H233        H  0.85320433  0.09617879  0.51378816     0.28540
H234        H  0.83035182  0.19546355  0.25995430     0.28530
H235        H  0.89892118  0.07914624  0.33526942     0.19120
H236        H  0.74720100  0.14465423  0.42015823     0.19130
C237        C  0.22993153  0.83606689  0.65324511    -0.06700
C238        C  0.23875017  0.88989333  0.64905330    -0.17830
C239        C  0.20285050  0.92200390  0.62533073     0.10500
C240        C  0.15764500  0.90032415  0.60360059    -0.06630
C241        C  0.14812589  0.84665506  0.60828240    -0.17860
C242        C  0.18378571  0.81417287  0.63306165     0.10530
S243        S  0.21497948  0.99060312  0.62652344    -0.32830
S244        S  0.16932262  0.74538077  0.63993163    -0.32830
H245        H  0.12283013  0.74540364  0.61163892     0.28540
H246        H  0.16404037  0.99834291  0.64044002     0.28530
H247        H  0.27382623  0.90717758  0.66466047     0.19120
H248        H  0.11322028  0.83025719  0.59154910     0.19130
C249        C  0.36194335  0.70285294  0.64510585    -0.06700
C250        C  0.36987988  0.65252098  0.66566385    -0.17830
C251        C  0.39924122  0.61840123  0.63950878     0.10500
C252        C  0.41962943  0.63426379  0.59078578    -0.06630
C253        C  0.41209596  0.68480307  0.57061081    -0.17860
C254        C  0.38433200  0.71951398  0.59748889     0.10530
S255        S  0.41216922  0.55692426  0.67193331    -0.32830
S256        S  0.38062091  0.78572055  0.57204527    -0.32830
H257        H  0.40896658  0.78062177  0.52696805     0.28540
H258        H  0.46211861  0.55405333  0.65274894     0.28530
H259        H  0.35412169  0.64020790  0.70297552     0.19120
H260        H  0.42830460  0.69717594  0.53354456     0.19130
C261        C  0.08626671  0.05388796  0.32699499    -0.06700
C262        C  0.09112107  0.01706975  0.28971005    -0.17830
C263        C  0.11055016  0.03119892  0.24057575     0.10500
C264        C  0.12619055  0.08329444  0.22858206    -0.06630
C265        C  0.12090328  0.11996685  0.26610292    -0.17860
C266        C  0.10054349  0.10603753  0.31461081     0.10530
S267        S  0.11346327  0.98121144  0.19501119    -0.32830
S268        S  0.09255877  0.15677822  0.35854798    -0.32830
H269        H  0.04857279  0.13409060  0.38267110     0.28540
H270        H  0.10328588  0.01332137  0.15090126     0.28530
H271        H  0.08019894  0.97690867  0.29915004     0.19120
H272        H  0.13246981  0.16008882  0.25740059     0.19130
C273        C  0.41099934  0.83683991  0.10738308    -0.06700
C274        C  0.40145069  0.79432760  0.07651863    -0.17830
C275        C  0.37623384  0.74875107  0.09621164     0.10500
C276        C  0.35873748  0.74564395  0.14773367    -0.06630
C277        C  0.36682158  0.78849221  0.17798536    -0.17860
C278        C  0.39249917  0.83358583  0.15878813     0.10530
S279        S  0.36952007  0.69553500  0.05420971    -0.32830
S280        S  0.39746713  0.88627622  0.20146629    -0.32830
H281        H  0.44984782  0.87857954  0.21198243     0.28540
H282        H  0.37479315  0.65643501  0.09345900     0.28530
H283        H  0.41494407  0.79597072  0.03710581     0.19120
H284        H  0.35261959  0.78690685  0.21717421     0.19130
C285        C  0.59849965  0.09276302  0.13959903    -0.06700
C286        C  0.64874058  0.11097317  0.12733387    -0.17830
C287        C  0.67852564  0.13962396  0.16191852     0.10500
C288        C  0.65794906  0.14997817  0.21007228    -0.06630
C289        C  0.60834677  0.13157394  0.22265371    -0.17860
C290        C  0.57838699  0.10348979  0.18838624     0.10530
S291        S  0.74204615  0.16202058  0.14228125    -0.32830
S292        S  0.51583411  0.08141521  0.21118370    -0.32830
H293        H  0.49003307  0.11246925  0.17372117     0.28540
H294        H  0.74510515  0.20568044  0.17230459     0.28530
H295        H  0.66497736  0.10321221  0.09043463     0.19120
H296        H  0.59293517  0.13871424  0.26014973     0.19130
C297        C  0.35923176  0.81384830  0.79527635    -0.06700
C298        C  0.41299629  0.81868297  0.79342627    -0.17830
C299        C  0.44128749  0.84639105  0.82936543     0.10500
C300        C  0.41554611  0.87414567  0.86613642    -0.06630
C301        C  0.36211279  0.86625648  0.87072205    -0.17860
C302        C  0.33397992  0.83515143  0.83681115     0.10530
S303        S  0.51014706  0.84332657  0.82651080    -0.32830
S304        S  0.26646186  0.82367069  0.84925625    -0.32830
H305        H  0.26236972  0.77593350  0.82577760     0.28540
H306        H  0.51597917  0.83975863  0.88054839     0.28530
H307        H  0.43358317  0.80197322  0.76282754     0.19120
H308        H  0.34189249  0.88515102  0.90020511     0.19130
C309        C  0.35056144  0.03733724  0.05882748    -0.06700
C310        C  0.35173416  0.08910647  0.07244172    -0.17830
C311        C  0.30745614  0.11212654  0.08885447     0.10500
C312        C  0.26037852  0.08299595  0.09139551    -0.06630
C313        C  0.25901000  0.03156584  0.07664794    -0.17860
C314        C  0.30332788  0.00862720  0.06018462     0.10530
S315        S  0.31460874  0.17736902  0.10974583    -0.32830
S316        S  0.29836213  0.94113719  0.04655325    -0.32830
H317        H  0.32732736  0.94696570  0.00120959     0.28540
H318        H  0.27974589  0.17039197  0.15062319     0.28530
H319        H  0.38808416  0.11095086  0.07292351     0.19120
H320        H  0.22323722  0.00878603  0.07888390     0.19130
C321        C  0.60182326  0.14535592  0.89638621    -0.06700
C322        C  0.57268815  0.18234140  0.86909211    -0.17830
C323        C  0.59563355  0.22838191  0.84774305     0.10500
C324        C  0.64989902  0.23596927  0.84958938    -0.06630
C325        C  0.67873278  0.19868156  0.87721219    -0.17860
C326        C  0.65521115  0.15498547  0.90216895     0.10530
S327        S  0.55294478  0.27677506  0.82205783    -0.32830
S328        S  0.69593710  0.11223409  0.93919855    -0.32830
H329        H  0.66483649  0.10897072  0.98311237     0.28540
H330        H  0.58429428  0.31924173  0.83643713     0.28530
H331        H  0.53143061  0.17601640  0.86580430     0.19120
H332        H  0.72018449  0.20338821  0.87944516     0.19130
C333        C  0.67120569  0.36152075  0.69601728    -0.06700
C334        C  0.65600316  0.41309025  0.69108604    -0.17830
C335        C  0.62750461  0.43137916  0.64787384     0.10500
C336        C  0.61434919  0.39768997  0.60824438    -0.06630
C337        C  0.63254890  0.34731330  0.61169441    -0.17860
C338        C  0.66138593  0.32923700  0.65440703     0.10530
S339        S  0.60544311  0.49638054  0.64764915    -0.32830
S340        S  0.68436555  0.26451966  0.65347600    -0.32830
H341        H  0.72740258  0.27333122  0.68570030     0.28540
H342        H  0.55595205  0.48383029  0.62857510     0.28530
H343        H  0.66337016  0.43829037  0.72265247     0.19120
H344        H  0.62362523  0.32147964  0.58094419     0.19130
C345        C  0.13085508  0.56156505  0.09959947    -0.06700
C346        C  0.12993882  0.61421730  0.10959718    -0.17830
C347        C  0.17112367  0.63895157  0.13507511     0.10500
C348        C  0.21504755  0.61088177  0.14959812    -0.06630
C349        C  0.21640166  0.55866763  0.13819671    -0.17860
C350        C  0.17519449  0.53391383  0.11317877     0.10530
S351        S  0.16371776  0.70520809  0.15083571    -0.32830
S352        S  0.18192228  0.46711245  0.09892173    -0.32830
H353        H  0.15150313  0.46925593  0.05358574     0.28540
H354        H  0.19267758  0.70216296  0.19706155     0.28530
H355        H  0.09569805  0.63542658  0.10028663     0.19120
H356        H  0.25026013  0.53712919  0.14825596     0.19130
C357        C  0.12240593  0.35341162  0.75133797    -0.06700
C358        C  0.12573198  0.40789063  0.74809616    -0.17830
C359        C  0.10937919  0.43696585  0.78815173     0.10500
C360        C  0.08482305  0.41172618  0.83123599    -0.06630
C361        C  0.08025679  0.35748241  0.83397255    -0.17860
C362        C  0.10079200  0.32809483  0.79610429     0.10530
S363        S  0.12291282  0.50584320  0.78252425    -0.32830
S364        S  0.10061143  0.25903515  0.80922602    -0.32830
H365        H  0.14880899  0.25283582  0.78718124     0.28540
H366        H  0.13363106  0.51059275  0.83549886     0.28530
H367        H  0.14233022  0.42828483  0.71438477     0.19120
H368        H  0.06016064  0.33767894  0.86572936     0.19130
C369        C  0.07986796  0.31266237  0.05853200    -0.06700
C370        C  0.10496410  0.30665232  0.10697559    -0.17830
C371        C  0.13006467  0.26182204  0.12220756     0.10500
C372        C  0.12912668  0.22004787  0.08945888    -0.06630
C373        C  0.10547871  0.22562792  0.04065270    -0.17860
C374        C  0.08160203  0.27156820  0.02460309     0.10530
S375        S  0.16245662  0.26046711  0.18438913    -0.32830
S376        S  0.05584913  0.27563678  0.96013624    -0.32830
H377        H  0.08560496  0.32114834  0.94866764     0.28540
H378        H  0.20123310  0.22759728  0.17110431     0.28530
H379        H  0.10550425  0.33729676  0.13384600     0.19120
H380        H  0.10509431  0.19378637  0.01515597     0.19130
C381        C  0.88002445  0.41845410  0.89630729    -0.06700
C382        C  0.87879287  0.36503238  0.88940507    -0.17830
C383        C  0.83701692  0.34046522  0.86459899     0.10500
C384        C  0.79468092  0.36959611  0.84706181    -0.06630
C385        C  0.79515804  0.42254201  0.85563686    -0.17860
C386        C  0.83669046  0.44702803  0.88052969     0.10530
S387        S  0.84167307  0.27260771  0.85376075    -0.32830
S388        S  0.83132545  0.51472513  0.89188288    -0.32830
H389        H  0.85965379  0.51305837  0.93857592     0.28540
H390        H  0.81470048  0.27394917  0.80632382     0.28530
H391        H  0.91188687  0.34278432  0.90060670     0.19120
H392        H  0.76241947  0.44491523  0.84350109     0.19130
C393        C  0.88510424  0.62792693  0.23388105    -0.06700
C394        C  0.89047780  0.57457659  0.24366337    -0.17830
C395        C  0.90779648  0.54322883  0.20601569     0.10500
C396        C  0.92402954  0.56586425  0.15770749    -0.06630
C397        C  0.91847589  0.61946473  0.14786103    -0.17860
C398        C  0.89815733  0.65031706  0.18475778     0.10530
S399        S  0.90559518  0.47459588  0.22208268    -0.32830
S400        S  0.88830252  0.71724070  0.16597670    -0.32830
H401        H  0.84332078  0.72098253  0.19459076     0.28540
H402        H  0.88472501  0.46159356  0.17383197     0.28530
H403        H  0.87972081  0.55670677  0.28092075     0.19120
H404        H  0.92997756  0.63776469  0.11105275     0.19130
C405        C  0.89097172  0.77175503  0.35919935    -0.06700
C406        C  0.90591718  0.76729224  0.41144496    -0.17830
C407        C  0.92317479  0.81041478  0.43785608     0.10500
C408        C  0.92503036  0.85977754  0.41201915    -0.06630
C409        C  0.91361899  0.86394090  0.35882942    -0.17860
C410        C  0.89603289  0.82060993  0.33227294     0.10530
S411        S  0.94221415  0.79982828  0.50458746    -0.32830
S412        S  0.87733757  0.83102781  0.26536873    -0.32830
H413        H  0.83557617  0.79495268  0.26666009     0.28540
H414        H  0.97811891  0.84179261  0.50549847     0.28530
H415        H  0.90307705  0.72985232  0.43218880     0.19120
H416        H  0.91512826  0.90168484  0.33864252     0.19130
C417        C  0.75278909  0.63378103  0.36756302    -0.06700
C418        C  0.70781173  0.66125750  0.36734432    -0.17830
C419        C  0.66233295  0.63870586  0.38726696     0.10500
C420        C  0.66167156  0.58717284  0.40936706    -0.06630
C421        C  0.70732656  0.56000926  0.40994243    -0.17860
C422        C  0.75271503  0.58271228  0.38953895     0.10530
S423        S  0.60726347  0.67870347  0.38295038    -0.32830
S424        S  0.80936766  0.54479468  0.39356591    -0.32830
H425        H  0.84476114  0.58685131  0.39754133     0.28540
H426        H  0.58045629  0.64593548  0.34927553     0.28530
H427        H  0.70781390  0.70032798  0.35011669     0.19120
H428        H  0.70793951  0.52081558  0.42668925     0.19130
C429        C  0.88543883  0.75750027  0.91632305    -0.06700
C430        C  0.93905703  0.75948162  0.92364923    -0.17830
C431        C  0.96575379  0.71491043  0.93708404     0.10500
C432        C  0.93840541  0.66705673  0.94349419    -0.06630
C433        C  0.88465157  0.66535737  0.93909958    -0.17860
C434        C  0.85788778  0.70982624  0.92520823     0.10530
S435        S  0.03485016  0.72054866  0.93945353    -0.32830
S436        S  0.78945928  0.70197750  0.91517955    -0.32830
H437        H  0.78760951  0.73465021  0.87015338     0.28540
H438        H  0.03987957  0.68968889  0.98531692     0.28530
H439        H  0.96056050  0.79578902  0.91656935     0.19120
H440        H  0.86358360  0.62850859  0.94382408     0.19130
C441        C  0.75147269  0.89273028  0.91182861    -0.06700
C442        C  0.70668674  0.86157298  0.92042122    -0.17830
C443        C  0.66084200  0.88297385  0.93515696     0.10500
C444        C  0.65934562  0.93676880  0.94091412    -0.06630
C445        C  0.70486393  0.96703477  0.93581443    -0.17860
C446        C  0.75079243  0.94580969  0.92170308     0.10530
S447        S  0.60567197  0.83980506  0.94580646    -0.32830
S448        S  0.80684982  0.98878045  0.91620726    -0.32830
H449        H  0.84265026  0.95092617  0.92939153     0.28540
H450        H  0.57954210  0.87162109  0.97803992     0.28530
H451        H  0.70698788  0.82058657  0.91401850     0.19120
H452        H  0.70423602  0.00795372  0.94101343     0.19130
C453        C  0.87921054  0.88590003  0.76895966    -0.06700
C454        C  0.87903548  0.85080986  0.72956224    -0.17830
C455        C  0.90157874  0.86405912  0.68192818     0.10500
C456        C  0.92380183  0.91423380  0.67231210    -0.06630
C457        C  0.92424205  0.94938635  0.71176849    -0.17860
C458        C  0.90267176  0.93563515  0.76006203     0.10530
S459        S  0.90292018  0.81426836  0.63610552    -0.32830
S460        S  0.90728240  0.98280634  0.80877312    -0.32830
H461        H  0.91271086  0.94702845  0.85102596     0.28540
H462        H  0.95197806  0.82943224  0.61751552     0.28530
H463        H  0.86212688  0.81218564  0.73646066     0.19120
H464        H  0.94106738  0.98801062  0.70476829     0.19130
loop_ 
_geom_bond_atom_site_label_1 
_geom_bond_atom_site_label_2 
_geom_bond_distance 
_geom_bond_site_symmetry_2 
_ccdc_geom_bond_type 
C1            C2   1.410       .  A
C1            C6   1.408       .  A
C1          C441   1.485       .  S
C2            C3   1.404       .  A
C2            H7   1.084       .  S
C3            C4   1.396       .  A
C3          C453   1.480       .  S
C4            C5   1.399       .  A
C4            H8   1.085       .  S
C5            C6   1.405       .  A
C5          C429   1.480       .  S
C6            H9   1.083       .  S
C10          C11   1.397       .  A
C10          C15   1.393       .  A
C10         C417   1.472       .  S
C11          C12   1.404       .  A
C11          H16   1.084       .  S
C12          C13   1.410       .  A
C12         C405   1.483       .  S
C13          C14   1.411       .  A
C13          H17   1.083       .  S
C14          C15   1.401       .  A
C14         C393   1.483       .  S
C15          H18   1.085       .  S
O19         Ni25   1.918       .  S
O19          C40   1.270       .  A
O20         Ni43   1.898   1_556  S
O20          C29   1.263       .  A
O21         Ni25   1.898   1_655  S
O21         Ni43   1.900       .  S
O21         Ni37   1.913   1_654  S
O21          H44   0.966       .  S
C22         C360   1.482       .  S
C22          O39   1.276       .  A
C22          O31   1.276       .  A
O23         Ni42   1.934       .  S
O23          C29   1.272       .  A
O24         Ni42   1.894       .  S
O24          C26   1.267       .  A
Ni25         O28   1.920   1_455  S
Ni25         O30   1.895       .  S
C26         C381   1.485       .  S
C26          O36   1.279       .  A
O27         Ni43   1.914       .  S
O27          C33   1.275       .  A
O28          C33   1.275       .  A
C29         C432   1.469       .  S
O30          C32   1.265       .  A
O31         Ni42   1.922   1_455  S
C32         C345   1.476       .  S
C32          O38   1.273       .  A
C33         C396   1.490       .  S
H34          O35   0.966       .  S
O35         Ni43   1.910   1_456  S
O35         Ni37   1.912       .  S
O35         Ni42   1.905   1_455  S
O36         Ni37   1.947   1_655  S
Ni37         O41   1.926   1_556  S
Ni37         O39   1.916       .  S
O38         Ni43   1.935   1_455  S
C40         C369   1.499       .  S
C40          O41   1.273       .  A
C45          C46   1.407       .  A
C45          C50   1.403       .  A
C45         C384   1.486       .  S
C46          C47   1.405       .  A
C46          H51   1.084       .  S
C47          C48   1.407       .  A
C47         C333   1.490       .  S
C48          C49   1.406       .  A
C48          H52   1.082       .  S
C49          C50   1.407       .  A
C49         C324   1.497       .  S
C50          H53   1.083       .  S
O54         Ni60   1.912   1_545  S
O54          C75   1.264       .  A
O55         Ni78   1.904       .  S
O55          C64   1.269       .  A
O56         Ni60   1.892       .  S
O56         Ni78   1.893   1_554  S
O56         Ni72   1.909   1_565  S
O56          H79   0.966       .  S
C57         C321   1.480       .  S
C57          O74   1.273       .  A
C57          O66   1.277       .  A
O58         Ni77   1.926       .  S
O58          C64   1.273       .  A
O59         Ni77   1.909       .  S
O59          C61   1.268       .  A
Ni60         O63   1.913       .  S
Ni60         O65   1.901   1_565  S
C61         C444   1.478       .  S
C61          O71   1.274       .  A
O62         Ni78   1.934   1_554  S
O62          C68   1.282       .  A
O63          C68   1.275       .  A
C64         C300   1.484       .  S
O65          C67   1.265       .  A
O66         Ni77   1.935   1_545  S
C67         C309   1.478       .  S
C67          O73   1.273   1_545  A
C68         C273   1.491       .  S
H69          O70   0.966       .  S
O70         Ni78   1.925   1_545  S
O70         Ni72   1.909   1_556  S
O70         Ni77   1.903   1_545  S
O71         Ni72   1.938   1_566  S
Ni72         O76   1.909       .  S
Ni72         O74   1.916   1_554  S
O73         Ni78   1.939   1_554  S
C75         C285   1.482       .  S
C75          O76   1.268       .  A
C80          C81   1.409       .  A
C80          C85   1.409       .  A
C80         C312   1.486       .  S
C81          C82   1.404       .  A
C81          H86   1.084       .  S
C82          C83   1.398       .  A
C82         C372   1.478       .  S
C83          C84   1.398       .  A
C83          H87   1.085       .  S
C84          C85   1.406       .  A
C84         C264   1.485       .  S
C85          H88   1.084       .  S
C89          C90   1.407       .  A
C89          C94   1.403       .  A
C89         C297   1.489       .  S
C90          C91   1.401       .  A
C90          H95   1.083       .  S
C91          C92   1.401       .  A
C91         C249   1.479       .  S
C92          C93   1.401       .  A
C92          H96   1.084       .  S
C93          C94   1.403       .  A
C93         C237   1.480       .  S
C94          H97   1.083       .  S
O98        Ni104   1.931       .  S
O98         C119   1.270       .  A
O99        Ni122   1.914   1_655  S
O99         C108   1.268       .  A
O100       Ni104   1.917   1_565  S
O100       Ni122   1.916       .  S
O100       Ni116   1.909   1_465  S
O100        H123   0.965       .  S
C101        C225   1.478       .  S
C101        O118   1.276       .  A
C101        O110   1.276       .  A
O102       Ni121   1.926       .  S
O102        C108   1.270       .  A
O103       Ni121   1.905       .  S
O103        C105   1.267       .  A
Ni104       O107   1.923   1_545  S
Ni104       O109   1.904       .  S
C105        C408   1.479       .  S
C105        O115   1.269       .  A
O106       Ni122   1.910       .  S
O106        C112   1.272       .  A
O107        C112   1.275       .  A
C108        C456   1.478       .  S
O109        C111   1.267       .  A
O110       Ni121   1.919   1_545  S
C111        C216   1.476       .  S
C111        O117   1.274       .  A
C112        C240   1.470       .  S
H113        O114   0.967   1_545  S
O114       Ni122   1.898   1_655  S
O114       Ni116   1.907   1_565  S
O114       Ni121   1.909       .  S
O115       Ni116   1.931   1_565  S
Ni116       O120   1.906   1_655  S
Ni116       O118   1.910       .  S
O117       Ni122   1.942   1_545  S
C119        C261   1.471       .  S
C119        O120   1.265       .  A
C124        C125   1.396       .  A
C124        C129   1.398       .  A
C124        C288   1.469       .  S
C125        C126   1.402       .  A
C125        H130   1.084       .  S
C126        C127   1.407       .  A
C126        C228   1.479       .  S
C127        C128   1.404       .  A
C127        H131   1.083       .  S
C128        C129   1.400       .  A
C128        C201   1.481       .  S
C129        H132   1.085       .  S
C133        C134   1.397       .  A
C133        C138   1.401       .  A
C133        C192   1.480       .  S
C134        C135   1.403       .  A
C134        H139   1.084       .  S
C135        C136   1.411       .  A
C135        C357   1.491       .  S
C136        C137   1.406       .  A
C136        H140   1.082       .  S
C137        C138   1.404       .  A
C137        C213   1.481       .  S
C138        H141   1.084       .  S
C142        C143   1.405       .  A
C142        C147   1.409       .  A
C142        C348   1.482       .  S
C143        C144   1.402       .  A
C143        H148   1.083       .  S
C144        C145   1.403       .  A
C144        C276   1.484       .  S
C145        C146   1.403       .  A
C145        H149   1.084       .  S
C146        C147   1.404       .  A
C146        C177   1.487       .  S
C147        H150   1.084       .  S
O151       Ni157   1.913       .  S
O151        C172   1.264       .  A
O152       Ni175   1.907       .  S
O152        C161   1.269       .  A
O153       Ni157   1.890       .  S
O153       Ni175   1.893       .  S
O153       Ni169   1.908       .  S
O153        H176   0.967       .  S
C154        C204   1.479       .  S
C154        O171   1.277       .  A
C154        O163   1.278       .  A
O155       Ni174   1.928       .  S
O155        C161   1.273       .  A
O156       Ni174   1.901       .  S
O156        C158   1.268       .  A
Ni157       O160   1.909       .  S
Ni157       O162   1.902       .  S
C158        C336   1.481       .  S
C158        O168   1.276       .  A
O159       Ni175   1.929       .  S
O159        C165   1.281       .  A
O160        C165   1.277       .  A
C161        C189   1.486       .  S
O162        C164   1.266       .  A
O163       Ni174   1.920       .  S
C164        C180   1.482       .  S
C164        O170   1.273       .  A
C165        C252   1.474       .  S
H166        O167   0.965       .  S
O167       Ni175   1.909       .  S
O167       Ni169   1.900       .  S
O167       Ni174   1.893       .  S
O168       Ni169   1.944       .  S
Ni169       O173   1.916       .  S
Ni169       O171   1.915       .  S
O170       Ni175   1.938       .  S
C172        C420   1.486       .  S
C172        O173   1.272       .  A
C177        C178   1.406       .  A
C177        C182   1.414       .  A
C178        C179   1.406       .  A
C178        H187   1.084       .  S
C179        C180   1.414       .  A
C179        S183   1.801       .  S
C180        C181   1.404       .  A
C181        C182   1.397       .  A
C181        H188   1.084       .  S
C182        S184   1.805       .  S
S183        H186   1.407       .  S
S184        H185   1.407       .  S
C189        C190   1.409       .  A
C189        C194   1.417       .  A
C190        C191   1.396       .  A
C190        H199   1.084       .  S
C191        C192   1.410       .  A
C191        S195   1.802       .  S
C192        C193   1.404       .  A
C193        C194   1.398       .  A
C193        H200   1.084       .  S
C194        S196   1.801       .  S
S195        H198   1.406       .  S
S196        H197   1.404       .  S
C201        C202   1.405       .  A
C201        C206   1.412       .  A
C202        C203   1.393       .  A
C202        H211   1.084       .  S
C203        C204   1.415       .  A
C203        S207   1.805       .  S
C204        C205   1.407       .  A
C205        C206   1.400       .  A
C205        H212   1.084       .  S
C206        S208   1.803       .  S
S207        H210   1.408       .  S
S208        H209   1.406       .  S
C213        C214   1.406       .  A
C213        C218   1.411       .  A
C214        C215   1.409       .  A
C214        H223   1.084       .  S
C215        C216   1.415       .  A
C215        S219   1.805       .  S
C216        C217   1.398       .  A
C217        C218   1.393       .  A
C217        H224   1.076       .  S
C218        S220   1.804       .  S
S219        H222   1.405       .  S
S220        H221   1.405       .  S
C225        C226   1.404       .  A
C225        C230   1.417       .  A
C226        C227   1.399       .  A
C226        H235   1.084       .  S
C227        C228   1.415       .  A
C227        S231   1.804       .  S
C228        C229   1.402       .  A
C229        C230   1.393       .  A
C229        H236   1.084       .  S
C230        S232   1.805       .  S
S231        H234   1.407       .  S
S232        H233   1.408       .  S
C237        C238   1.403       .  A
C237        C242   1.414       .  A
C238        C239   1.391       .  A
C238        H247   1.084       .  S
C239        C240   1.407       .  A
C239        S243   1.795       .  S
C240        C241   1.402       .  A
C241        C242   1.404       .  A
C241        H248   1.083       .  S
C242        S244   1.807       .  S
S243        H246   1.406       .  S
S244        H245   1.407       .  S
C249        C250   1.404       .  A
C249        C254   1.412       .  A
C250        C251   1.400       .  A
C250        H259   1.084       .  S
C251        C252   1.412       .  A
C251        S255   1.802       .  S
C252        C253   1.404       .  A
C253        C254   1.397       .  A
C253        H260   1.083       .  S
C254        S256   1.811       .  S
S255        H258   1.407       .  S
S256        H257   1.407       .  S
C261        C262   1.404       .  A
C261        C266   1.409       .  A
C262        C263   1.403       .  A
C262        H271   1.084   1_545  S
C263        C264   1.414       .  A
C263        S267   1.803   1_545  S
C264        C265   1.407       .  A
C265        C266   1.396       .  A
C265        H272   1.084       .  S
C266        S268   1.805       .  S
S267        H270   1.406   1_565  S
S268        H269   1.407       .  S
C273        C274   1.407       .  A
C273        C278   1.421       .  A
C274        C275   1.404       .  A
C274        H283   1.084       .  S
C275        C276   1.415       .  A
C275        S279   1.803       .  S
C276        C277   1.400       .  A
C277        C278   1.395       .  A
C277        H284   1.085       .  S
C278        S280   1.802       .  S
S279        H282   1.406       .  S
S280        H281   1.408       .  S
C285        C286   1.409       .  A
C285        C290   1.421       .  A
C286        C287   1.400       .  A
C286        H295   1.083       .  S
C287        C288   1.409       .  A
C287        S291   1.804       .  S
C288        C289   1.397       .  A
C289        C290   1.389       .  A
C289        H296   1.085       .  S
C290        S292   1.804       .  S
S291        H294   1.406       .  S
S292        H293   1.408       .  S
C297        C298   1.403       .  A
C297        C302   1.418       .  A
C298        C299   1.391       .  A
C298        H307   1.083       .  S
C299        C300   1.417       .  A
C299        S303   1.803       .  S
C300        C301   1.405       .  A
C301        C302   1.403       .  A
C301        H308   1.084       .  S
C302        S304   1.804       .  S
S303        H306   1.405       .  S
S304        H305   1.407       .  S
C309        C310   1.404       .  A
C309        C314   1.413       .  A
C310        C311   1.402       .  A
C310        H319   1.084       .  S
C311        C312   1.415       .  A
C311        S315   1.804       .  S
C312        C313   1.405       .  A
C313        C314   1.402       .  A
C313        H320   1.084       .  S
C314        S316   1.802   1_545  S
S315        H318   1.406       .  S
S316        H317   1.405       .  S
C321        C322   1.402       .  A
C321        C326   1.411       .  A
C322        C323   1.403       .  A
C322        H331   1.084       .  S
C323        C324   1.421       .  A
C323        S327   1.804       .  S
C324        C325   1.407       .  A
C325        C326   1.398       .  A
C325        H332   1.083       .  S
C326        S328   1.796       .  S
S327        H330   1.407       .  S
S328        H329   1.404       .  S
C333        C334   1.408       .  A
C333        C338   1.414       .  A
C334        C335   1.406       .  A
C334        H343   1.084       .  S
C335        C336   1.412       .  A
C335        S339   1.801       .  S
C336        C337   1.405       .  A
C337        C338   1.399       .  A
C337        H344   1.084       .  S
C338        S340   1.805       .  S
S339        H342   1.406       .  S
S340        H341   1.407       .  S
C345        C346   1.403       .  A
C345        C350   1.414       .  A
C346        C347   1.402       .  A
C346        H355   1.084       .  S
C347        C348   1.416       .  A
C347        S351   1.804       .  S
C348        C349   1.402       .  A
C349        C350   1.397       .  A
C349        H356   1.084       .  S
C350        S352   1.805       .  S
S351        H354   1.406       .  S
S352        H353   1.407       .  S
C357        C358   1.409       .  A
C357        C362   1.415       .  A
C358        C359   1.396       .  A
C358        H367   1.083       .  S
C359        C360   1.412       .  A
C359        S363   1.804       .  S
C360        C361   1.404       .  A
C361        C362   1.399       .  A
C361        H368   1.078       .  S
C362        S364   1.803       .  S
S363        H366   1.408       .  S
S364        H365   1.407       .  S
C369        C370   1.411       .  A
C369        C374   1.419       .  A
C370        C371   1.392       .  A
C370        H379   1.083       .  S
C371        C372   1.410       .  A
C371        S375   1.807       .  S
C372        C373   1.402       .  A
C373        C374   1.406       .  A
C373        H380   1.084       .  S
C374        S376   1.790   1_554  S
S375        H378   1.406       .  S
S376        H377   1.406       .  S
C381        C382   1.404       .  A
C381        C386   1.418       .  A
C382        C383   1.404       .  A
C382        H391   1.084       .  S
C383        C384   1.417       .  A
C383        S387   1.804       .  S
C384        C385   1.401       .  A
C385        C386   1.399       .  A
C385        H392   1.084       .  S
C386        S388   1.805       .  S
S387        H390   1.406       .  S
S388        H389   1.407       .  S
C393        C394   1.404       .  A
C393        C398   1.411       .  A
C394        C395   1.394       .  A
C394        H403   1.084       .  S
C395        C396   1.417       .  A
C395        S399   1.804       .  S
C396        C397   1.411       .  A
C397        C398   1.402       .  A
C397        H404   1.084       .  S
C398        S400   1.803       .  S
S399        H402   1.408       .  S
S400        H401   1.406       .  S
C405        C406   1.403       .  A
C405        C410   1.415       .  A
C406        C407   1.397       .  A
C406        H415   1.084       .  S
C407        C408   1.411       .  A
C407        S411   1.802       .  S
C408        C409   1.405       .  A
C409        C410   1.405       .  A
C409        H416   1.084       .  S
C410        S412   1.803       .  S
S411        H414   1.407       .  S
S412        H413   1.406       .  S
C417        C418   1.396       .  A
C417        C422   1.412       .  A
C418        C419   1.394       .  A
C418        H427   1.084       .  S
C419        C420   1.424       .  A
C419        S423   1.802       .  S
C420        C421   1.406       .  A
C421        C422   1.398       .  A
C421        H428   1.084       .  S
C422        S424   1.805       .  S
S423        H426   1.408       .  S
S424        H425   1.406       .  S
C429        C430   1.407       .  A
C429        C434   1.414       .  A
C430        C431   1.398       .  A
C430        H439   1.084       .  S
C431        C432   1.408       .  A
C431        S435   1.801   1_655  S
C432        C433   1.403       .  A
C433        C434   1.399       .  A
C433        H440   1.084       .  S
C434        S436   1.803       .  S
S435        H438   1.404       .  S
S436        H437   1.406       .  S
C441        C442   1.406       .  A
C441        C446   1.413       .  A
C442        C443   1.404       .  A
C442        H451   1.084       .  S
C443        C444   1.412       .  A
C443        S447   1.801       .  S
C444        C445   1.400       .  A
C445        C446   1.399       .  A
C445        H452   1.077   1_565  S
C446        S448   1.804       .  S
S447        H450   1.406       .  S
S448        H449   1.406       .  S
C453        C454   1.403       .  A
C453        C458   1.413       .  A
C454        C455   1.396       .  A
C454        H463   1.084       .  S
C455        C456   1.413       .  A
C455        S459   1.801       .  S
C456        C457   1.405       .  A
C457        C458   1.403       .  A
C457        H464   1.084       .  S
C458        S460   1.803       .  S
S459        H462   1.407       .  S
S460        H461   1.406       .  S
