geometry optimzed in LAMMPS
_audit_creation_date              2020-11-30 
_audit_creation_method            'lammps2cif' 
_symmetry_space_group_name_H-M    'P1' 
_symmetry_Int_Tables_number       1 
_symmetry_cell_setting            triclinic 
loop_ 
_symmetry_equiv_pos_as_xyz 
  x,y,z 
_cell_length_a                    31.53992126 
_cell_length_b                    36.86919705113754 
_cell_length_c                    37.254719775806976 
_cell_angle_alpha                 89.93645837797081 
_cell_angle_beta                  89.87641007878253 
_cell_angle_gamma                 90.02265102134253 
loop_ 
_atom_site_label 
_atom_site_type_symbol 
_atom_site_fract_x 
_atom_site_fract_y 
_atom_site_fract_z 
_atom_site_charge 
In1        In  0.66546186  0.24580582  0.14555845     1.36900
C2          C  0.58146464  0.24189516  0.14201341     0.77100
O3          O  0.65926008  0.21575202  0.19736375    -0.61400
O4          O  0.67931429  0.27105845  0.19858078    -0.52300
C5          C  0.73311661  0.20711898  0.12666712     0.69700
O6          O  0.69617667  0.19876647  0.11625961    -0.47200
C7          C  0.67718128  0.30183525  0.10231954     0.74400
O8          O  0.60439566  0.21546865  0.13219798    -0.59000
O9          O  0.68201619  0.30370456  0.13589299    -0.49100
O10         O  0.60157575  0.26938055  0.15242040    -0.55400
C11         C  0.66967687  0.24288050  0.21605545     0.84600
O12         O  0.73427407  0.23399836  0.14747420    -0.57300
O13         O  0.66732270  0.27077709  0.09086160    -0.60600
In14       In  0.65610432  0.89707048  0.82718739     1.36900
C15         C  0.57223044  0.90066271  0.82806736     0.77100
O16         O  0.65399502  0.92584729  0.77437359    -0.61400
O17         O  0.67129407  0.86983587  0.77560552    -0.52300
C18         C  0.72395702  0.93404651  0.84872916     0.69700
O19         O  0.68653093  0.94494780  0.85487039    -0.47200
C20         C  0.66322400  0.84402871  0.87423225     0.74400
O21         O  0.59449022  0.92799379  0.83651646    -0.59000
O22         O  0.67116815  0.83991189  0.84120935    -0.49100
O23         O  0.59291929  0.87268621  0.81994726    -0.55400
C24         C  0.66387542  0.89770452  0.75696378     0.84600
O25         O  0.72590391  0.90552208  0.83017665    -0.57300
O26         O  0.65221967  0.87569627  0.88303323    -0.60600
In27       In  0.95246287  0.15606575  0.01419342     1.36900
C28         C  0.03626173  0.15710259  0.01930286     0.77100
O29         O  0.95121442  0.09685714  0.02635290    -0.61400
O30         O  0.94054135  0.11452015  0.97244953    -0.52300
C31         C  0.88810001  0.16243618  0.05950916     0.69700
O32         O  0.92605663  0.16686555  0.06947275    -0.47200
C33         C  0.94085746  0.21461940  0.97397319     0.74400
O34         O  0.01332660  0.16371595  0.04640352    -0.59000
O35         O  0.93170146  0.18307851  0.96353767    -0.49100
O36         O  0.01628664  0.14956441  0.99114574    -0.55400
C37         C  0.94420135  0.08840379  0.99405340     0.84600
O38         O  0.88396157  0.15382860  0.02700944    -0.60500
O39         O  0.95500522  0.21604483  0.00553046    -0.60600
In40       In  0.94611745  0.98331464  0.96130004     1.36900
C41         C  0.03017543  0.98214107  0.95589059     0.77100
O42         O  0.94807380  0.04241758  0.94963870    -0.61400
O43         O  0.93685142  0.02504402  0.00360719    -0.52300
C44         C  0.87919844  0.97799358  0.91803000     0.69700
O45         O  0.91676479  0.97312307  0.90702902    -0.47200
C46         C  0.93556742  0.92416934  0.00066847     0.74400
O47         O  0.00728165  0.97786177  0.92830558    -0.59000
O48         O  0.92566897  0.95546288  0.01146761    -0.49100
O49         O  0.01000335  0.98666335  0.98464894    -0.55400
C50         C  0.94242398  0.05103148  0.98209290     0.84600
O51         O  0.87667857  0.98674099  0.95065072    -0.57300
O52         O  0.94939455  0.92316969  0.96890183    -0.60600
In53       In  0.66135686  0.24253527  0.32583413     1.36900
C54         C  0.57751343  0.23672180  0.32957757     0.77100
O55         O  0.66180658  0.26581347  0.38119556    -0.61400
O56         O  0.67730449  0.30043223  0.33753709    -0.52300
C57         C  0.72585689  0.20329968  0.34985897     0.69700
O58         O  0.68778088  0.19570467  0.35741209    -0.47200
C59         C  0.66881468  0.24223543  0.25520717     0.74400
O60         O  0.60114009  0.20947139  0.33453714    -0.59000
O61         O  0.67699419  0.26990766  0.27383930    -0.49100
O62         O  0.59682583  0.26588792  0.32323982    -0.55400
C63         C  0.67198265  0.29725280  0.37103112     0.84600
O64         O  0.73025103  0.22903100  0.32786717    -0.57300
O65         O  0.65825701  0.21436919  0.27275811    -0.60600
In66       In  0.66196139  0.89265507  0.64743065     1.36900
C67         C  0.57799471  0.89683716  0.64057839     0.77100
O68         O  0.66838337  0.86686776  0.59345277    -0.61400
O69         O  0.67980000  0.83447518  0.63964343    -0.52300
C70         C  0.72923516  0.93177236  0.62911203     0.69700
O71         O  0.69227796  0.93977147  0.61841892    -0.47200
C72         C  0.66490384  0.89671706  0.71790622     0.74400
O73         O  0.60145631  0.92362385  0.63290193    -0.59000
O74         O  0.67362069  0.86807291  0.70098889    -0.49100
O75         O  0.59761583  0.86886416  0.65040962    -0.55400
C76         C  0.67811703  0.83609555  0.60582319     0.84600
O77         O  0.73069775  0.90478118  0.64972920    -0.57300
O78         O  0.65564973  0.92379886  0.69872218    -0.60600
In79       In  0.94620144  0.98649317  0.51409035     1.36900
C80         C  0.02973935  0.98605285  0.51830636     0.77100
O81         O  0.95066083  0.92691435  0.50380007    -0.61400
O82         O  0.92495012  0.96051774  0.46302324    -0.52300
C83         C  0.88000444  0.97896945  0.55720702     0.69700
O84         O  0.91757571  0.97475890  0.56850279    -0.47200
C85         C  0.94032996  0.05567363  0.49799731     0.74400
O86         O  0.00743705  0.98044666  0.54609581    -0.59000
O87         O  0.93785199  0.03103258  0.47467774    -0.49100
O88         O  0.00921058  0.99142551  0.48993516    -0.55400
C89         C  0.93572616  0.92894670  0.47246108     0.84600
O90         O  0.87733865  0.98651121  0.52433291    -0.57300
O91         O  0.94451042  0.04497033  0.52998103    -0.60600
In92       In  0.94415648  0.16248353  0.46982241     1.36900
C93         C  0.02769066  0.16413766  0.46231565     0.77100
O94         O  0.94874629  0.22224572  0.47985605    -0.61400
O95         O  0.92275040  0.18879894  0.52051870    -0.52300
C96         C  0.87764030  0.16645635  0.42623777     0.69700
O97         O  0.91495517  0.17277368  0.41538307    -0.47200
C98         C  0.94012084  0.09381050  0.48817976     0.74400
O99         O  0.00377471  0.17030482  0.43574878    -0.59000
O100        O  0.93648402  0.11886417  0.51101578    -0.49100
O101        O  0.00873001  0.15722188  0.49123596    -0.55400
C102        C  0.93399509  0.22023626  0.51132233     0.84600
O103        O  0.87517453  0.15862957  0.45910403    -0.57300
O104        O  0.94491482  0.10396031  0.45608347    -0.60600
In105      In  0.45087065  0.24569463  0.14727505     1.36900
C106        C  0.53493548  0.24188806  0.14267746     0.77100
O107        O  0.44928398  0.27124616  0.09262278    -0.61400
O108        O  0.43109064  0.30329743  0.13730168    -0.52300
C109        C  0.38653107  0.20518552  0.12514452     0.69700
O110        O  0.42446697  0.19827789  0.11648259    -0.47200
C111        C  0.44401581  0.24128598  0.21808244     0.74400
O112        O  0.51181900  0.21557556  0.13315623    -0.59000
O113        O  0.43671008  0.27013978  0.20093294    -0.49100
O114        O  0.51501644  0.26919189  0.15390985    -0.55400
C115        C  0.43680536  0.30169553  0.10377700     0.84600
O116        O  0.38243219  0.23135665  0.14658564    -0.57300
O117        O  0.45402138  0.21434426  0.19896575    -0.60600
In118      In  0.44234561  0.89395132  0.82241906     1.36900
C119        C  0.52582478  0.89991222  0.82686032     0.77100
O120        O  0.44404227  0.87247554  0.87822947    -0.61400
O121        O  0.42629648  0.83625882  0.83673193    -0.52300
C122        C  0.37674866  0.93293049  0.84400235     0.69700
O123        O  0.41455645  0.94227023  0.85047630    -0.47200
C124        C  0.43777522  0.89516142  0.75168273     0.74400
O125        O  0.50198152  0.92647688  0.83428085    -0.59000
O126        O  0.42873820  0.86724928  0.76982178    -0.49100
O127        O  0.50682839  0.87139318  0.81759833    -0.55400
C128        C  0.43356303  0.84064048  0.86982845     0.84600
O129        O  0.37306493  0.90501650  0.82476623    -0.57300
O130        O  0.44735814  0.92286517  0.76978176    -0.60600
In131      In  0.16615220  0.15756621  0.01152090     1.36900
C132        C  0.08261357  0.15805990  0.01863453     0.77100
O133        O  0.16310893  0.21772356  0.00349144    -0.61400
O134        O  0.18523161  0.18516626  0.96057743    -0.52300
C135        C  0.23326187  0.16248265  0.05419931     0.69700
O136        O  0.19585138  0.16672020  0.06581090    -0.47200
C137        C  0.16995757  0.08885200  0.99306304     0.74400
O138        O  0.10622248  0.16397133  0.04545429    -0.59000
O139        O  0.17376137  0.11410946  0.97040769    -0.49100
O140        O  0.10184358  0.15271217  0.98955300    -0.55400
C141        C  0.17602577  0.21661265  0.97144587     0.84600
O142        O  0.23547712  0.15551699  0.02111975    -0.57300
O143        O  0.16593192  0.09876402  0.02528926    -0.60600
In144      In  0.16027610  0.98224493  0.96442360     1.36900
C145        C  0.07668754  0.98211683  0.95658683     0.77100
O146        O  0.15275148  0.92249743  0.97281984    -0.61400
O147        O  0.17802601  0.95454400  0.01516685    -0.52300
C148        C  0.22866366  0.97421957  0.92362246     0.69700
O149        O  0.19152622  0.97302899  0.91074942    -0.47200
C150        C  0.16831664  0.05086014  0.98265392     0.74400
O151        O  0.10075640  0.97711199  0.92977165    -0.59000
O152        O  0.16927321  0.02555552  0.00541884    -0.49100
O153        O  0.09556649  0.98722109  0.98584368    -0.55400
C154        C  0.16655095  0.92357787  0.00459965     0.84600
O155        O  0.22991946  0.97892791  0.95703869    -0.57300
O156        O  0.16414354  0.04105475  0.95042859    -0.60600
In157      In  0.44739084  0.23920018  0.32819190     1.36900
C158        C  0.53107376  0.23596012  0.33020751     0.77100
O159        O  0.45171956  0.21138918  0.27480100    -0.61400
O160        O  0.43422280  0.26727000  0.27623137    -0.52300
C161        C  0.38148057  0.20140748  0.35097314     0.69700
O162        O  0.41902220  0.19248963  0.35907486    -0.47200
C163        C  0.43652413  0.29138440  0.37622725     0.74400
O164        O  0.50879032  0.20788645  0.33586900    -0.59000
O165        O  0.42609499  0.29493806  0.34363087    -0.49100
O166        O  0.51043487  0.26457912  0.32432511    -0.55400
C167        C  0.44274096  0.23976734  0.25735634     0.84600
O168        O  0.37874896  0.22698382  0.32866560    -0.57300
O169        O  0.45200288  0.26085541  0.38395210    -0.60600
In170      In  0.44723017  0.89220394  0.64203688     1.36900
C171        C  0.53138537  0.89686323  0.63968246     0.77100
O172        O  0.45111180  0.92192109  0.69431793    -0.61400
O173        O  0.42998949  0.86697709  0.69454304    -0.52300
C174        C  0.38009674  0.92932257  0.61917860     0.69700
O175        O  0.41765306  0.93928285  0.61209896    -0.47200
C176        C  0.44038800  0.83608527  0.59836449     0.74400
O177        O  0.50841870  0.92364525  0.63091473    -0.59000
O178        O  0.43235302  0.83401945  0.63150318    -0.49100
O179        O  0.51122503  0.86890116  0.64890233    -0.55400
C180        C  0.43909297  0.89487212  0.71250660     0.84600
O181        O  0.37768979  0.90149886  0.63863886    -0.57300
O182        O  0.45106395  0.86730363  0.58765632    -0.60600
In183      In  0.15779270  0.16419995  0.46665914     1.36900
C184        C  0.07410386  0.16473346  0.46162271     0.77100
O185        O  0.15953733  0.10596165  0.45074745    -0.61400
O186        O  0.16623378  0.11946460  0.50618096    -0.52300
C187        C  0.22563321  0.17034856  0.42519485     0.69700
O188        O  0.18842314  0.17274184  0.41264491    -0.47200
C189        C  0.16793505  0.22298411  0.50634672     0.74400
O190        O  0.09687709  0.17110602  0.43424786    -0.59000
O191        O  0.17774055  0.19166444  0.51720981    -0.49100
O192        O  0.09424904  0.15862158  0.49008089    -0.55400
C193        C  0.16389409  0.09498904  0.48261537     0.84600
O194        O  0.22717448  0.16512565  0.45861049    -0.57300
O195        O  0.15369774  0.22415975  0.47467897    -0.60600
In196      In  0.15907557  0.98750410  0.50800736     1.36900
C197        C  0.07602794  0.98647125  0.51696686     0.77100
O198        O  0.16122770  0.04567319  0.52375063    -0.61400
O199        O  0.16612786  0.03215845  0.46813119    -0.52300
C200        C  0.22900078  0.97775757  0.54622559     0.69700
O201        O  0.19230065  0.97515592  0.55997367    -0.47200
C202        C  0.16540108  0.92845395  0.46850059     0.74400
O203        O  0.10044404  0.98178453  0.54353839    -0.59000
O204        O  0.17514420  0.95953676  0.45673678    -0.49100
O205        O  0.09430358  0.99168910  0.48737217    -0.55400
C206        C  0.16430400  0.05663424  0.49174353     0.84600
O207        O  0.22910043  0.98600963  0.51342405    -0.57300
O208        O  0.15293840  0.92799185  0.50066294    -0.60600
In209      In  0.15976658  0.39957354  0.64858957     1.36900
C210        C  0.07602296  0.40454383  0.64861550     0.77100
O211        O  0.15118908  0.37708052  0.59371145    -0.61400
O212        O  0.17689395  0.34263579  0.63394385    -0.52300
C213        C  0.22618558  0.43507582  0.62284122     0.69700
O214        O  0.18856821  0.44540320  0.61689320    -0.47200
C215        C  0.16711792  0.40028744  0.71902533     0.74400
O216        O  0.09880009  0.43142000  0.63959618    -0.59000
O217        O  0.17444762  0.37237348  0.70042435    -0.49100
O218        O  0.09619681  0.37638779  0.65718132    -0.55400
C219        C  0.16499034  0.34605435  0.60172318     0.84600
O220        O  0.22944066  0.40899017  0.64452370    -0.57300
O221        O  0.15829329  0.42862043  0.70141913    -0.60600
In222      In  0.16176932  0.74921429  0.32976877     1.36900
C223        C  0.07806282  0.74493535  0.33164528     0.77100
O224        O  0.15844642  0.77310069  0.38465806    -0.61400
O225        O  0.17744546  0.80689314  0.34123368    -0.52300
C226        C  0.22916515  0.71344640  0.35292206     0.69700
O227        O  0.19179856  0.70293625  0.35985431    -0.47200
C228        C  0.16728423  0.74710266  0.25944270     0.74400
O229        O  0.10059270  0.71777760  0.34013362    -0.59000
O230        O  0.17601843  0.77518580  0.27727411    -0.49100
O231        O  0.09845104  0.77296617  0.32310205    -0.55400
C232        C  0.16987852  0.80429402  0.37442331     0.84600
O233        O  0.23128430  0.74046793  0.33225860    -0.57300
O234        O  0.15813420  0.71930264  0.27773260    -0.60600
In235      In  0.44752937  0.47775878  0.50406340     1.36900
C236        C  0.53128657  0.47510565  0.51016348     0.77100
O237        O  0.44890066  0.41739243  0.49923755    -0.61400
O238        O  0.42749966  0.44841922  0.45470696    -0.52300
C239        C  0.37934856  0.47219824  0.54588217     0.69700
O240        O  0.41657887  0.46792328  0.55786888    -0.47200
C241        C  0.44451127  0.54689083  0.48618074     0.74400
O242        O  0.50757926  0.47253715  0.53754422    -0.59000
O243        O  0.44046899  0.52201572  0.46315432    -0.49100
O244        O  0.51203016  0.47826165  0.48076683    -0.55400
C245        C  0.43499994  0.41733433  0.46747944     0.84600
O246        O  0.37782988  0.48011700  0.51295671    -0.57300
O247        O  0.44882085  0.53633807  0.51819292    -0.60600
In248      In  0.45218858  0.65484540  0.46166941     1.36900
C249        C  0.53596017  0.65780573  0.45798324     0.77100
O250        O  0.45660185  0.71418212  0.47056563    -0.61400
O251        O  0.43404256  0.68134792  0.51342999    -0.52300
C252        C  0.38440884  0.66681480  0.42129798     0.69700
O253        O  0.42173386  0.66995842  0.40901046    -0.47200
C254        C  0.44555900  0.58527421  0.47673936     0.74400
O255        O  0.51386705  0.66029179  0.42967843    -0.59000
O256        O  0.44166628  0.60970380  0.50017801    -0.49100
O257        O  0.51515466  0.65345677  0.48647727    -0.55400
C258        C  0.44417364  0.71273817  0.50273126     0.84600
O259        O  0.38264225  0.65632487  0.45348143    -0.57300
O260        O  0.45183349  0.59639545  0.44508291    -0.60600
In261      In  0.15942745  0.39416739  0.82872519     1.36900
C262        C  0.07544174  0.39812629  0.83256570     0.77100
O263        O  0.15632675  0.42591094  0.77733638    -0.61400
O264        O  0.17425299  0.37018389  0.77528384    -0.52300
C265        C  0.22573919  0.43274770  0.85024531     0.69700
O266        O  0.18805648  0.44203087  0.85769140    -0.47200
C267        C  0.17072010  0.33813397  0.87275751     0.74400
O268        O  0.09850490  0.42391113  0.84359584    -0.59000
O269        O  0.17656250  0.33605832  0.83930108    -0.49100
O270        O  0.09537807  0.37141933  0.82003167    -0.55400
C271        C  0.16653393  0.39901406  0.75822622     0.84600
O272        O  0.22864394  0.40485016  0.83094980    -0.57300
O273        O  0.15929603  0.36913035  0.88339540    -0.60600
In274      In  0.15654890  0.74998743  0.15027155     1.36900
C275        C  0.07307678  0.74511881  0.14960870     0.77100
O276        O  0.15580537  0.71980929  0.20226423    -0.61400
O277        O  0.17151665  0.77620665  0.20250084    -0.52300
C278        C  0.22575405  0.71544922  0.12880228     0.69700
O279        O  0.18897941  0.70251223  0.12360386    -0.47200
C280        C  0.16004787  0.80277926  0.10248633     0.74400
O281        O  0.09580576  0.71858294  0.13957566    -0.59000
O282        O  0.17241976  0.80672448  0.13452053    -0.49100
O283        O  0.09321597  0.77255312  0.16034065    -0.55400
C284        C  0.16547871  0.74752969  0.22037382     0.84600
O285        O  0.22620929  0.74498174  0.14565523    -0.57300
O286        O  0.14653087  0.77149475  0.09489571    -0.60600
In287      In  0.44279851  0.66145627  0.01031548     1.36900
C288        C  0.52700245  0.66322660  0.01608297     0.77100
O289        O  0.44062398  0.60275542  0.02579142    -0.61400
O290        O  0.43563685  0.61668207  0.97042186    -0.52300
C291        C  0.37632033  0.67002431  0.05351587     0.69700
O292        O  0.41396795  0.67461021  0.06445459    -0.47200
C293        C  0.43111786  0.71878560  0.96810076     0.74400
O294        O  0.50360913  0.66834116  0.04329852    -0.59000
O295        O  0.42056743  0.68705754  0.95925843    -0.49100
O296        O  0.50723953  0.65739475  0.98739615    -0.55400
C297        C  0.43751874  0.59195495  0.99376404     0.84600
O298        O  0.37359107  0.66094303  0.02105485    -0.57300
O299        O  0.44666568  0.72112773  0.99922400    -0.60600
In300      In  0.44336408  0.48398216  0.96797318     1.36900
C301        C  0.52750723  0.48108019  0.96231634     0.77100
O302        O  0.44519735  0.54274102  0.95273443    -0.61400
O303        O  0.43242296  0.52886094  0.00719812    -0.52300
C304        C  0.37557642  0.47714519  0.92598416     0.69700
O305        O  0.41290656  0.47272171  0.91406288    -0.47200
C306        C  0.43288426  0.42722342  0.01085201     0.74400
O307        O  0.50442168  0.47780389  0.93471579    -0.59000
O308        O  0.42703714  0.45946418  0.02095305    -0.49100
O309        O  0.50746486  0.48488991  0.99122829    -0.55400
C310        C  0.43790549  0.55357274  0.98425938     0.84600
O311        O  0.37389687  0.48473445  0.95887134    -0.57300
O312        O  0.44215116  0.42393219  0.97797671    -0.60600
In313      In  0.94507223  0.39319282  0.83267667     1.36900
C314        C  0.02895189  0.39783916  0.83353350     0.77100
O315        O  0.95000982  0.36767436  0.88690739    -0.61400
O316        O  0.92808407  0.33536775  0.84373020    -0.52300
C317        C  0.87942795  0.43121940  0.85689679     0.69700
O318        O  0.91726490  0.44066379  0.86318434    -0.47200
C319        C  0.93728978  0.39779053  0.76226384     0.74400
O320        O  0.00609373  0.42365887  0.84487646    -0.59000
O321        O  0.92874716  0.36915161  0.77942032    -0.49100
O322        O  0.00882743  0.37060193  0.82241141    -0.55400
C323        C  0.93750243  0.33688284  0.87659654     0.84600
O324        O  0.87610004  0.40363995  0.83715571    -0.57300
O325        O  0.94786865  0.42460815  0.78127950    -0.60600
In326      In  0.94318852  0.75293500  0.14969788     1.36900
C327        C  0.02666431  0.74597855  0.14882660     0.77100
O328        O  0.94714140  0.77421152  0.09377212    -0.61400
O329        O  0.92825926  0.81028645  0.13530754    -0.52300
C330        C  0.87441295  0.71858517  0.12792541     0.69700
O331        O  0.91133491  0.70699739  0.12075823    -0.47200
C332        C  0.93650069  0.75114935  0.21995620     0.74400
O333        O  0.00302017  0.71954260  0.14034959    -0.59000
O334        O  0.93090028  0.77991250  0.20214150    -0.49100
O335        O  0.00746579  0.77477236  0.15687887    -0.55400
C336        C  0.93540682  0.80582563  0.10222093     0.84600
O337        O  0.87356858  0.74614938  0.14781009    -0.57300
O338        O  0.94316227  0.72289755  0.20166612    -0.60600
In339      In  0.65806156  0.48551926  0.96987025     1.36900
C340        C  0.57408825  0.48162651  0.96277526     0.77100
O341        O  0.65942835  0.42592536  0.98005121    -0.61400
O342        O  0.67471205  0.46140219  0.02298747    -0.52300
C343        C  0.72571624  0.47597215  0.92825586     0.69700
O344        O  0.68824620  0.47213358  0.91676286    -0.47200
C345        C  0.66405723  0.55515806  0.98491228     0.74400
O346        O  0.59808282  0.47845195  0.93568016    -0.59000
O347        O  0.66731590  0.53087559  0.00856361    -0.49100
O348        O  0.59315707  0.48624882  0.99199007    -0.55400
C349        C  0.66967507  0.42913449  0.01264943     0.84600
O350        O  0.72793185  0.48536868  0.96072448    -0.57300
O351        O  0.65873770  0.54386637  0.95328638    -0.60600
In352      In  0.65784526  0.66277233  0.00980478     1.36900
C353        C  0.57364674  0.66372109  0.01590431     0.77100
O354        O  0.65467992  0.72229457  0.00072751    -0.61400
O355        O  0.67765016  0.68892433  0.95849401    -0.52300
C356        C  0.72488357  0.67258312  0.05149024     0.69700
O357        O  0.68736207  0.67519830  0.06348925    -0.47200
C358        C  0.66436554  0.59357288  0.99384670     0.74400
O359        O  0.59702012  0.66858904  0.04308971    -0.59000
O360        O  0.66638402  0.61801628  0.97019883    -0.49100
O361        O  0.59342666  0.65892623  0.98695671    -0.55400
C362        C  0.66847562  0.72049258  0.96892912     0.84600
O363        O  0.72723949  0.66450351  0.01873181    -0.57300
O364        O  0.66077796  0.60461361  0.02575420    -0.60600
In365      In  0.94578410  0.39857623  0.65258112     1.36900
C366        C  0.02955087  0.40436810  0.64962892     0.77100
O367        O  0.94873030  0.42687763  0.70568293    -0.61400
O368        O  0.92881156  0.37160814  0.70427322    -0.52300
C369        C  0.87872768  0.43560815  0.63025358     0.69700
O370        O  0.91613969  0.44670056  0.62462296    -0.47200
C371        C  0.93836335  0.34422503  0.60644347     0.74400
O372        O  0.00603529  0.43045866  0.64002767    -0.59000
O373        O  0.93222027  0.34046464  0.63976136    -0.49100
O374        O  0.01011584  0.37663441  0.66050354    -0.55400
C375        C  0.93753791  0.39903541  0.72307446     0.84600
O376        O  0.87650411  0.40729610  0.64911944    -0.57300
O377        O  0.94781908  0.37606011  0.59704733    -0.60600
In378      In  0.94799733  0.75254691  0.32916325     1.36900
C379        C  0.03165679  0.74567974  0.33113265     0.77100
O380        O  0.94814986  0.72320750  0.27678675    -0.61400
O381        O  0.93159497  0.77930523  0.27729419    -0.52300
C382        C  0.88371777  0.71356922  0.35341222     0.69700
O383        O  0.92169715  0.70618681  0.36125991    -0.47200
C384        C  0.93887539  0.80850461  0.37317268     0.74400
O385        O  0.00781510  0.71931961  0.33923427    -0.59000
O386        O  0.93182232  0.81052855  0.33994021    -0.49100
O387        O  0.01260817  0.77421906  0.32212492    -0.55400
C388        C  0.93801241  0.75104691  0.25903403     0.84600
O389        O  0.87944072  0.73948118  0.33166445    -0.57300
O390        O  0.94981234  0.77739503  0.38380426    -0.60600
In391      In  0.66575435  0.65646786  0.46863957     1.36900
C392        C  0.58231764  0.65920343  0.45965356     0.77100
O393        O  0.66613465  0.59816310  0.45210505    -0.61400
O394        O  0.67065565  0.61063888  0.50776041    -0.52300
C395        C  0.73219119  0.66612400  0.42578948     0.69700
O396        O  0.69487277  0.67400982  0.41621429    -0.47200
C397        C  0.67919662  0.71147014  0.51303690     0.74400
O398        O  0.60700219  0.66030476  0.43289356    -0.59000
O399        O  0.68519340  0.67886856  0.52194536    -0.49100
O400        O  0.60047567  0.65834795  0.48961548    -0.55400
C401        C  0.66842055  0.58653596  0.48387702     0.84600
O402        O  0.73468825  0.65254908  0.45680365    -0.57300
O403        O  0.66775059  0.71591988  0.48087545    -0.60600
In404      In  0.66198253  0.47819379  0.50751620     1.36900
C405        C  0.57779672  0.47539365  0.51095456     0.77100
O406        O  0.66053802  0.53645571  0.52384250    -0.61400
O407        O  0.67210351  0.52376912  0.46885416    -0.52300
C408        C  0.72667704  0.47157813  0.55290594     0.69700
O409        O  0.68873641  0.46539428  0.56225089    -0.47200
C410        C  0.67403503  0.42126053  0.46554530     0.74400
O411        O  0.60019151  0.47099979  0.53878117    -0.59000
O412        O  0.68304384  0.45318321  0.45599739    -0.49100
O413        O  0.59847022  0.48074819  0.48255707    -0.55400
C414        C  0.66733573  0.54795381  0.49244427     0.84600
O415        O  0.73081835  0.48114022  0.52057370    -0.57300
O416        O  0.66156169  0.41826534  0.49763244    -0.60600
C417        C  0.80700532  0.70001000  0.35264092    -0.09700
C418        C  0.84647801  0.69530985  0.36936802     0.06500
C419        C  0.84811237  0.67751911  0.40284715    -0.03400
C420        C  0.81049072  0.66639454  0.41943022    -0.07900
C421        C  0.77065236  0.67341120  0.40389085     0.05600
C422        C  0.76930867  0.68967493  0.36953357    -0.02900
Br423      Br  0.71784359  0.70096516  0.34447282    -0.02600
H424        H  0.80520266  0.71343345  0.32681169     0.09500
H425        H  0.81248490  0.65390554  0.44567009     0.07600
Br426      Br  0.89967864  0.67119815  0.42953883    -0.03000
C427        C  0.80054212  0.43955932  0.62722313    -0.09700
C428        C  0.83998366  0.45192979  0.61450136     0.06500
C429        C  0.84082045  0.47494332  0.58421184    -0.03400
C430        C  0.80308486  0.48237882  0.56578950    -0.07900
C431        C  0.76404046  0.46743307  0.57685711     0.05600
C432        C  0.76292595  0.44688082  0.60884438    -0.02900
Br433      Br  0.71248111  0.42474741  0.62767050    -0.02600
H434        H  0.79906051  0.42232352  0.65069659     0.09500
H435        H  0.80464140  0.49890014  0.54178034     0.07600
Br436      Br  0.89229338  0.49492110  0.56479988    -0.03000
C437        C  0.83958011  0.68043992  0.08199249    -0.09700
C438        C  0.83544026  0.70292518  0.11212044     0.06500
C439        C  0.79424543  0.71267504  0.12385080    -0.03400
C440        C  0.75871610  0.70085828  0.10469362    -0.07900
C441        C  0.76306314  0.68006461  0.07337985     0.05600
C442        C  0.80417236  0.66929514  0.06242584    -0.02900
Br443      Br  0.81519430  0.64005236  0.02074426    -0.02600
H444        H  0.87078200  0.67268755  0.07252977     0.09500
H445        H  0.72754943  0.70932755  0.11355910     0.07600
Br446      Br  0.78351823  0.74268933  0.16509000    -0.03000
C447        C  0.80169438  0.44002848  0.85721747    -0.09700
C448        C  0.84122041  0.44900660  0.87216560     0.06500
C449        C  0.84209978  0.47089225  0.90324194    -0.03400
C450        C  0.80395673  0.48044436  0.92015406    -0.07900
C451        C  0.76445298  0.46921819  0.90649442     0.05600
C452        C  0.76366232  0.44989223  0.87383286    -0.02900
Br453      Br  0.71244461  0.43354110  0.85128896    -0.02600
H454        H  0.80021783  0.42389879  0.83301771     0.09500
H455        H  0.80535007  0.49599138  0.94473276     0.07600
Br456      Br  0.89369098  0.48716716  0.92533778    -0.03000
C457        C  0.34190451  0.69864349  0.10647829    -0.09700
C458        C  0.33825094  0.67647927  0.07607791     0.06500
C459        C  0.29765872  0.66335704  0.06644499    -0.03400
C460        C  0.26176439  0.67456649  0.08555892    -0.07900
C461        C  0.26508142  0.69903880  0.11419291     0.05600
C462        C  0.30598534  0.71006722  0.12547308    -0.02900
Br463      Br  0.31577814  0.74106292  0.16610600    -0.02600
H464        H  0.37273794  0.70846504  0.11468603     0.09500
H465        H  0.23087467  0.66534897  0.07682175     0.07600
Br466      Br  0.28834443  0.63043435  0.02729654    -0.03000
C467        C  0.34044175  0.45689403  0.86954015    -0.09700
C468        C  0.33676489  0.47223005  0.90389860     0.06500
C469        C  0.29565640  0.48028906  0.91716275    -0.03400
C470        C  0.25979167  0.46933654  0.89797659    -0.07900
C471        C  0.26365490  0.45088987  0.86528874     0.05600
C472        C  0.30443861  0.44651779  0.85012328    -0.02900
Br473      Br  0.31321816  0.42691043  0.80294671    -0.02600
H474        H  0.37143272  0.45179287  0.85814694     0.09500
H475        H  0.22876313  0.47381944  0.90956632     0.07600
Br476      Br  0.28522585  0.50582260  0.96124714    -0.03000
C477        C  0.30581247  0.66676063  0.41662937    -0.09700
C478        C  0.34521582  0.67551184  0.40094933     0.06500
C479        C  0.34554091  0.69473978  0.36814659    -0.03400
C480        C  0.30719459  0.70492660  0.35223817    -0.07900
C481        C  0.26794093  0.69718295  0.36853040     0.05600
C482        C  0.26751744  0.67776613  0.40117225    -0.02900
Br483      Br  0.21652757  0.66879979  0.42821126    -0.02600
H484        H  0.30465892  0.65242307  0.44207588     0.09500
H485        H  0.30822193  0.72032349  0.32739546     0.07600
Br486      Br  0.39661096  0.71082807  0.34484533    -0.03000
C487        C  0.30208363  0.45326115  0.62292010    -0.09700
C488        C  0.26370586  0.45000524  0.60419660     0.06500
C489        C  0.26337536  0.45616304  0.56689984    -0.03400
C490        C  0.30111094  0.46474425  0.54901100    -0.07900
C491        C  0.33999821  0.46692650  0.56741822     0.05600
C492        C  0.33994825  0.46194481  0.60506743    -0.02900
Br493      Br  0.38990567  0.46642664  0.63402235    -0.02600
H494        H  0.30274778  0.44834759  0.65158003     0.09500
H495        H  0.30016197  0.46813780  0.52016323     0.07600
Br496      Br  0.21354101  0.44869478  0.53823116    -0.03000
C497        C  0.19019144  0.89783601  0.41327713    -0.09700
C498        C  0.16835527  0.89554899  0.44606238     0.06500
C499        C  0.14973493  0.86215171  0.45609926    -0.03400
C500        C  0.15158091  0.83270523  0.43260704    -0.07900
C501        C  0.17219604  0.83541113  0.39927250     0.05600
C502        C  0.19283580  0.86814841  0.39019146    -0.02900
Br503      Br  0.22705921  0.87407889  0.34789619    -0.02600
H504        H  0.20575138  0.92289107  0.40555704     0.09500
H505        H  0.13597487  0.80765734  0.44027862     0.07600
Br506      Br  0.12026730  0.85452569  0.50070986    -0.03000
C507        C  0.14259669  0.28432955  0.52246465    -0.09700
C508        C  0.17049894  0.25550235  0.52935178     0.06500
C509        C  0.19790791  0.25767732  0.55920312    -0.03400
C510        C  0.19586854  0.28771030  0.58194842    -0.07900
C511        C  0.16705589  0.31597675  0.57570016     0.05600
C512        C  0.14038280  0.31428328  0.54532033    -0.02900
Br513      Br  0.09785032  0.35012624  0.53477113    -0.02600
H514        H  0.12102238  0.28294513  0.49984506     0.09500
H515        H  0.21704324  0.28890144  0.60488272     0.07600
Br516      Br  0.23962513  0.22140126  0.57022149    -0.03000
C517        C  0.41970994  0.74264687  0.55880206    -0.09700
C518        C  0.44228671  0.74493280  0.52632212     0.06500
C519        C  0.46340172  0.77763713  0.51771711    -0.03400
C520        C  0.46163091  0.80684388  0.54144400    -0.07900
C521        C  0.43929719  0.80452163  0.57397424     0.05600
C522        C  0.41783520  0.77200612  0.58250032    -0.02900
Br523      Br  0.38399428  0.76615296  0.62507303    -0.02600
H524        H  0.40303190  0.71782781  0.56580156     0.09500
H525        H  0.47865173  0.83148507  0.53457214     0.07600
Br526      Br  0.49687946  0.78440862  0.47502635    -0.03000
C527        C  0.34551496  0.96503300  0.57093406    -0.09700
C528        C  0.34188422  0.94686482  0.60388125     0.06500
C529        C  0.30115555  0.94238587  0.61920627    -0.03400
C530        C  0.26521432  0.95423747  0.60063313    -0.07900
C531        C  0.26855458  0.97019944  0.56650354     0.05600
C532        C  0.30955758  0.97632627  0.55198862    -0.02900
Br533      Br  0.31977907  0.99847838  0.50599492    -0.02600
H534        H  0.37641911  0.96876526  0.55883687     0.09500
H535        H  0.23434965  0.94968829  0.61250754     0.07600
Br536      Br  0.29187565  0.92012899  0.66524845    -0.03000
C537        C  0.40728539  0.35138915  0.39311136    -0.09700
C538        C  0.43197260  0.32117932  0.40259399     0.06500
C539        C  0.45312261  0.32129445  0.43607685    -0.03400
C540        C  0.45227200  0.35249480  0.45738026    -0.07900
C541        C  0.43002649  0.38359425  0.44652115     0.05600
C542        C  0.40560658  0.38216219  0.41489757    -0.02900
Br543      Br  0.36825465  0.42060558  0.40040273    -0.02600
H544        H  0.38937850  0.35130076  0.36828857     0.09500
H545        H  0.47033146  0.35277097  0.48207647     0.07600
Br546      Br  0.48519932  0.28090768  0.45424644    -0.03000
C547        C  0.30415018  0.19036242  0.34984671    -0.09700
C548        C  0.34298650  0.18605826  0.36783602     0.06500
C549        C  0.34273153  0.17335917  0.40355496    -0.03400
C550        C  0.30403433  0.16722356  0.42087397    -0.07900
C551        C  0.26503251  0.17362257  0.40359443     0.05600
C552        C  0.26540626  0.18442676  0.36721769    -0.02900
Br553      Br  0.21492756  0.19418865  0.34000939    -0.02600
H554        H  0.30382717  0.20015892  0.32238914     0.09500
H555        H  0.30463427  0.15856460  0.44872706     0.07600
Br556      Br  0.39341964  0.16731034  0.43163932    -0.03000
C557        C  0.13538666  0.86522544  0.02418036    -0.09700
C558        C  0.16721519  0.89151014  0.02813586     0.06500
C559        C  0.19704378  0.88782339  0.05600889    -0.03400
C560        C  0.19424278  0.85844329  0.07953868    -0.07900
C561        C  0.16196781  0.83250906  0.07608664     0.05600
C562        C  0.13213541  0.83610329  0.04807624    -0.02900
Br563      Br  0.08387961  0.80464765  0.04297820    -0.02600
H564        H  0.11167369  0.86821924  0.00328976     0.09500
H565        H  0.21756529  0.85586629  0.10079003     0.07600
Br566      Br  0.24291154  0.92139915  0.06286084    -0.03000
C567        C  0.18915192  0.24352644  0.91137094    -0.09700
C568        C  0.17849607  0.24884441  0.94762974     0.06500
C569        C  0.16825079  0.28424945  0.95926153    -0.03400
C570        C  0.16682634  0.31269369  0.93442321    -0.07900
C571        C  0.17575417  0.30708347  0.89784323     0.05600
C572        C  0.18802110  0.27199376  0.88656678    -0.02900
Br573      Br  0.20318163  0.26005813  0.83801428    -0.02600
H574        H  0.19764016  0.21671021  0.90187962     0.09500
H575        H  0.15806887  0.33943507  0.94389942     0.07600
Br576      Br  0.15574791  0.29630507  0.00833927    -0.03000
C577        C  0.40992269  0.77855362  0.88645756    -0.09700
C578        C  0.43064883  0.81071925  0.89633831     0.06500
C579        C  0.44905419  0.81296364  0.93086233    -0.03400
C580        C  0.44726448  0.78312678  0.95400289    -0.07900
C581        C  0.42772133  0.75051895  0.94370909     0.05600
C582        C  0.40804110  0.74872585  0.90966493    -0.02900
Br583      Br  0.37766433  0.70694916  0.89272896    -0.02600
H584        H  0.39511953  0.77644885  0.86030705     0.09500
H585        H  0.46256520  0.78519268  0.97993142     0.07600
Br586      Br  0.47965686  0.85468084  0.94784366    -0.03000
C587        C  0.26337558  0.95800100  0.86582602    -0.09700
C588        C  0.26751440  0.96943529  0.90162452     0.06500
C589        C  0.30880017  0.97445788  0.91580884    -0.03400
C590        C  0.34424500  0.96512843  0.89521605    -0.07900
C591        C  0.33972470  0.95069405  0.86066464     0.05600
C592        C  0.29898756  0.94878444  0.84532789    -0.02900
Br593      Br  0.29016139  0.93431103  0.79641187    -0.02600
H594        H  0.23228608  0.95512633  0.85398095     0.09500
H595        H  0.37540145  0.96720083  0.90714536     0.07600
Br596      Br  0.32010499  0.99272503  0.96322557    -0.03000
C597        C  0.43801151  0.36817147  0.09451717    -0.09700
C598        C  0.43153170  0.33354235  0.08000233     0.06500
C599        C  0.42270832  0.33031916  0.04299863    -0.03400
C600        C  0.42232202  0.36127043  0.02121517    -0.07900
C601        C  0.43028775  0.39580406  0.03552998     0.05600
C602        C  0.43775536  0.39910199  0.07279749    -0.02900
Br603      Br  0.45165984  0.44420559  0.09569984    -0.02600
H604        H  0.44511844  0.37113438  0.12282713     0.09500
H605        H  0.41593905  0.35825595  0.99279229     0.07600
Br606      Br  0.40940289  0.28485417  0.02065871    -0.03000
C607        C  0.31155454  0.15995197  0.05970654    -0.09700
C608        C  0.27215956  0.16670911  0.07623469     0.06500
C609        C  0.27179504  0.18008317  0.11175342    -0.03400
C610        C  0.30998294  0.19005267  0.12809792    -0.07900
C611        C  0.34902309  0.18641161  0.11014362     0.05600
C612        C  0.34971345  0.16943868  0.07624706    -0.02900
Br613      Br  0.40080876  0.16138962  0.04925707    -0.02600
H614        H  0.31280469  0.14870688  0.03291675     0.09500
H615        H  0.30892925  0.20213558  0.15455441     0.07600
Br616      Br  0.22087219  0.18712362  0.13924201    -0.03000
C617        C  0.94490009  0.28590458  0.52226399    -0.09700
C618        C  0.93174646  0.25203437  0.53553124     0.06500
C619        C  0.91930129  0.24927085  0.57192798    -0.03400
C620        C  0.92103177  0.27983749  0.59402266    -0.07900
C621        C  0.93515050  0.31351470  0.58096682     0.05600
C622        C  0.94684572  0.31642235  0.54440347    -0.02900
Br623      Br  0.96739185  0.36037096  0.52260531    -0.02600
H624        H  0.95466315  0.28864394  0.49449587     0.09500
H625        H  0.91177805  0.27699147  0.62191518     0.07600
Br626      Br  0.90090552  0.20481192  0.59413831    -0.03000
C627        C  0.93723279  0.83301555  0.43505393    -0.09700
C628        C  0.93526767  0.83970404  0.39797101     0.06500
C629        C  0.93126986  0.87588681  0.38587948    -0.03400
C630        C  0.92974720  0.90417926  0.41081373    -0.07900
C631        C  0.93301138  0.89753130  0.44785477     0.05600
C632        C  0.93624412  0.86132368  0.45992047    -0.02900
Br633      Br  0.93883268  0.84805209  0.50973637    -0.02600
H634        H  0.93994483  0.80545307  0.44494042     0.09500
H635        H  0.92759988  0.93182847  0.40094758     0.07600
Br636      Br  0.93060325  0.88928958  0.33598400    -0.03000
C637        C  0.67517012  0.76958337  0.59700003    -0.09700
C638        C  0.68450598  0.80395204  0.58282190     0.06500
C639        C  0.69653018  0.80687060  0.54644323    -0.03400
C640        C  0.69564812  0.77618696  0.52443229    -0.07900
C641        C  0.68400156  0.74214442  0.53815861     0.05600
C642        C  0.67473900  0.73881589  0.57511786    -0.02900
Br643      Br  0.65694118  0.69407354  0.59687116    -0.02600
H644        H  0.66605806  0.76682546  0.62494842     0.09500
H645        H  0.70391897  0.77900194  0.49629715     0.07600
Br646      Br  0.71612482  0.85147935  0.52556554    -0.03000
C647        C  0.76501373  0.97358937  0.58658531    -0.09700
C648        C  0.76806608  0.95044008  0.61633448     0.06500
C649        C  0.80874010  0.94253870  0.63035863    -0.03400
C650        C  0.84506910  0.95394429  0.61184503    -0.07900
C651        C  0.84179463  0.97376121  0.57980341     0.05600
C652        C  0.80126826  0.98552750  0.56849463    -0.02900
Br653      Br  0.79254698  0.01758104  0.52844851    -0.02600
H654        H  0.73424327  0.98113110  0.57621637     0.09500
H655        H  0.87587196  0.94587812  0.62173387     0.07600
Br656      Br  0.81739340  0.91598629  0.67420733    -0.03000
C657        C  0.67028559  0.36338778  0.38155564    -0.09700
C658        C  0.67543531  0.32842192  0.39579405     0.06500
C659        C  0.68125066  0.32438783  0.43322923    -0.03400
C660        C  0.68194331  0.35509720  0.45524651    -0.07900
C661        C  0.67627677  0.38997249  0.44093934     0.05600
C662        C  0.66982335  0.39390743  0.40366840    -0.02900
Br663      Br  0.65512758  0.43934644  0.38163118    -0.02600
H664        H  0.66456477  0.36698425  0.35300802     0.09500
H665        H  0.68643755  0.35162799  0.48392384     0.07600
Br666      Br  0.68855870  0.27821471  0.45639426    -0.03000
C667        C  0.80210164  0.18628535  0.34889317    -0.09700
C668        C  0.76293986  0.18593490  0.36703112     0.06500
C669        C  0.76171021  0.17397299  0.40299095    -0.03400
C670        C  0.79943959  0.16585092  0.42076036    -0.07900
C671        C  0.83902542  0.16927698  0.40364819     0.05600
C672        C  0.83992452  0.17752810  0.36661300    -0.02900
Br673      Br  0.89110199  0.17747792  0.33855705    -0.02600
H674        H  0.80347782  0.19453630  0.32098649     0.09500
H675        H  0.79772747  0.15857947  0.44891923     0.07600
Br676      Br  0.71070259  0.17217350  0.43119896    -0.03000
C677        C  0.91004323  0.89554721  0.05676900    -0.09700
C678        C  0.93225073  0.89198089  0.02425415     0.06500
C679        C  0.95267111  0.85875247  0.01660240    -0.03400
C680        C  0.95221578  0.83090750  0.04209731    -0.07900
C681        C  0.93172878  0.83520457  0.07534781     0.05600
C682        C  0.90939523  0.86766582  0.08213250    -0.02900
Br683      Br  0.87657848  0.87601412  0.12481904    -0.02600
H684        H  0.89338284  0.92051385  0.06285372     0.09500
H685        H  0.96912317  0.80605001  0.03618949     0.07600
Br686      Br  0.98353159  0.84959133  0.97301472    -0.03000
C687        C  0.92902265  0.24085999  0.91361819    -0.09700
C688        C  0.93679756  0.24666603  0.95027760     0.06500
C689        C  0.94237706  0.28256086  0.96262145    -0.03400
C690        C  0.94152611  0.31132114  0.93815088    -0.07900
C691        C  0.93509646  0.30539781  0.90128026     0.05600
C692        C  0.92818641  0.26957447  0.88915247    -0.02900
Br693      Br  0.91921969  0.25701894  0.83967461    -0.02600
H694        H  0.92459669  0.21351881  0.90355715     0.09500
H695        H  0.94637202  0.33860516  0.94813697     0.07600
Br696      Br  0.95103883  0.29478650  0.01224366    -0.03000
C697        C  0.64976685  0.78422559  0.95649771    -0.09700
C698        C  0.67119723  0.75274563  0.94557910     0.06500
C699        C  0.69197904  0.75248407  0.91195893    -0.03400
C700        C  0.68932244  0.78281942  0.88966943    -0.07900
C701        C  0.66661524  0.81383190  0.90006481     0.05600
C702        C  0.64709092  0.81453949  0.93423124    -0.02900
Br703      Br  0.61384702  0.85444060  0.95189095    -0.02600
H704        H  0.63354794  0.78494228  0.98219835     0.09500
H705        H  0.70514883  0.78201171  0.86372708     0.07600
Br706      Br  0.72502810  0.71234565  0.89457284    -0.03000
C707        C  0.80236749  0.94209086  0.84769868    -0.09700
C708        C  0.76301517  0.95145860  0.86305173     0.06500
C709        C  0.76281625  0.97376886  0.89382427    -0.03400
C710        C  0.80122212  0.98392725  0.90976980    -0.07900
C711        C  0.84050387  0.97233853  0.89590123     0.05600
C712        C  0.84080061  0.95240139  0.86357234    -0.02900
Br713      Br  0.89209527  0.93602947  0.84087784    -0.02600
H714        H  0.80335738  0.92541582  0.82380803     0.09500
H715        H  0.80016989  0.99970083  0.93425797     0.07600
Br716      Br  0.71170278  0.98851168  0.91779226    -0.03000
C717        C  0.67562983  0.36839142  0.09495449    -0.09700
C718        C  0.68015410  0.33413867  0.07900790     0.06500
C719        C  0.68425200  0.33182795  0.04135179    -0.03400
C720        C  0.68134292  0.36325031  0.02053243    -0.07900
C721        C  0.67504865  0.39736852  0.03639382     0.05600
C722        C  0.67290106  0.39983164  0.07420262    -0.02900
Br723      Br  0.66303731  0.44433008  0.09968219    -0.02600
H724        H  0.67244330  0.37071158  0.12384425     0.09500
H725        H  0.68400666  0.36091529  0.99162395     0.07600
Br726      Br  0.69533427  0.28720387  0.01647801    -0.03000
C727        C  0.81170320  0.20339552  0.12666486    -0.09700
C728        C  0.77282132  0.18928469  0.11433108     0.06500
C729        C  0.77370696  0.16140597  0.08838071    -0.03400
C730        C  0.81225184  0.15159413  0.07252908    -0.07900
C731        C  0.85054562  0.16817158  0.08261009     0.05600
C732        C  0.85034817  0.19287345  0.11143321    -0.02900
Br733      Br  0.90083058  0.21552061  0.12958342    -0.02600
H734        H  0.81212744  0.22398771  0.14732584     0.09500
H735        H  0.81207466  0.13157159  0.05129324     0.07600
Br736      Br  0.72420745  0.13577625  0.07254184    -0.03000
loop_ 
_geom_bond_atom_site_label_1 
_geom_bond_atom_site_label_2 
_geom_bond_distance 
_geom_bond_site_symmetry_2 
_ccdc_geom_bond_type 
In1           O3   2.233       .  S
In1           O4   2.229       .  S
In1          O12   2.215       .  S
In1           O6   2.267       .  S
In1           O8   2.283       .  S
In1           O9   2.226       .  S
In1          O10   2.209       .  S
In1          O13   2.236       .  S
C2            O8   1.267       .  A
C2           O10   1.257       .  A
C2          C106   1.468       .  S
O3           C11   1.263       .  A
O4           C11   1.262       .  A
C5           O12   1.259       .  A
C5            O6   1.267       .  A
C5          C728   1.487       .  S
C7            O9   1.262       .  A
C7           O13   1.262       .  A
C7          C718   1.476       .  S
C11          C59   1.459       .  S
In14         O16   2.235       .  S
In14         O17   2.221       .  S
In14         O25   2.226       .  S
In14         O19   2.260       .  S
In14         O21   2.280       .  S
In14         O22   2.222       .  S
In14         O23   2.203       .  S
In14         O26   2.227       .  S
C15          O21   1.268       .  A
C15          O23   1.258       .  A
C15         C119   1.465       .  S
O16          C24   1.263       .  A
O17          C24   1.262       .  A
C18          O25   1.261       .  A
C18          O19   1.268       .  A
C18         C708   1.489       .  S
C20          O22   1.264       .  A
C20          O26   1.262       .  A
C20         C701   1.475       .  S
C24          C72   1.456       .  S
In27         O29   2.229       .  S
In27         O30   2.217   1_554  S
In27         O38   2.213       .  S
In27         O32   2.256       .  S
In27         O34   2.284   1_655  S
In27         O35   2.232   1_554  S
In27         O36   2.200   1_654  S
In27         O39   2.236       .  S
C28          O34   1.265       .  A
C28          O36   1.256   1_554  A
C28         C132   1.463       .  S
O29          C37   1.263   1_554  A
O30          C37   1.260       .  A
C31          O38   1.259       .  A
C31          O32   1.265       .  A
C31         C731   1.478       .  S
C33          O35   1.260       .  A
C33          O39   1.260   1_556  A
C33         C688   1.480       .  S
C37          C50   1.450       .  S
In40         O42   2.222   1_565  S
In40         O43   2.223   1_566  S
In40         O51   2.230       .  S
In40         O45   2.257       .  S
In40         O47   2.294   1_655  S
In40         O48   2.226   1_556  S
In40         O49   2.200   1_655  S
In40         O52   2.238       .  S
C41          O47   1.267       .  A
C41          O49   1.256       .  A
C41         C145   1.467       .  S
O42          C50   1.263       .  A
O43          C50   1.261   1_554  A
C44          O51   1.260       .  A
C44          O45   1.266       .  A
C44         C711   1.489       .  S
C46          O48   1.261       .  A
C46          O52   1.261   1_554  A
C46         C678   1.479       .  S
In53         O55   2.235       .  S
In53         O56   2.236       .  S
In53         O64   2.231       .  S
In53         O58   2.250       .  S
In53         O60   2.279       .  S
In53         O61   2.237       .  S
In53         O62   2.213       .  S
In53         O65   2.237       .  S
C54          O60   1.265       .  A
C54          O62   1.258       .  A
C54         C158   1.465       .  S
O55          C63   1.260       .  A
O56          C63   1.264       .  A
C57          O64   1.260       .  A
C57          O58   1.264       .  A
C57         C668   1.480       .  S
C59          O61   1.262       .  A
C59          O65   1.261       .  A
C63         C658   1.479       .  S
In66         O68   2.234       .  S
In66         O69   2.237       .  S
In66         O77   2.215       .  S
In66         O71   2.256       .  S
In66         O73   2.290       .  S
In66         O74   2.222       .  S
In66         O75   2.213       .  S
In66         O78   2.239       .  S
C67          O73   1.266       .  A
C67          O75   1.258       .  A
C67         C171   1.471       .  S
O68          C76   1.262       .  A
O69          C76   1.263       .  A
C70          O77   1.257       .  A
C70          O71   1.267       .  A
C70         C648   1.482       .  S
C72          O74   1.261       .  A
C72          O78   1.262       .  A
C76         C638   1.477       .  S
In79         O81   2.235       .  S
In79         O82   2.235       .  S
In79         O90   2.204       .  S
In79         O84   2.259       .  S
In79         O86   2.283   1_655  S
In79         O87   2.218   1_565  S
In79         O88   2.187   1_655  S
In79         O91   2.237   1_565  S
C80          O86   1.267       .  A
C80          O88   1.256       .  A
C80         C197   1.461       .  S
O81          C89   1.262       .  A
O82          C89   1.263       .  A
C83          O90   1.259       .  A
C83          O84   1.268       .  A
C83         C651   1.481       .  S
C85          O87   1.260       .  A
C85          O91   1.262       .  A
C85          C98   1.452       .  S
C89         C631   1.480       .  S
In92         O94   2.240       .  S
In92         O95   2.228       .  S
In92        O103   2.217       .  S
In92         O97   2.261       .  S
In92         O99   2.284   1_655  S
In92        O100   2.234       .  S
In92        O101   2.197   1_655  S
In92        O104   2.218       .  S
C93          O99   1.266       .  A
C93         O101   1.257       .  A
C93         C184   1.464       .  S
O94         C102   1.262       .  A
O95         C102   1.259       .  A
C96         O103   1.260       .  A
C96          O97   1.265       .  A
C96         C671   1.485       .  S
C98         O100   1.262       .  A
C98         O104   1.261       .  A
C102        C618   1.482       .  S
In105       O107   2.243       .  S
In105       O108   2.245       .  S
In105       O116   2.222       .  S
In105       O110   2.252       .  S
In105       O112   2.281       .  S
In105       O113   2.238       .  S
In105       O114   2.215       .  S
In105       O117   2.247       .  S
C106        O112   1.265       .  A
C106        O114   1.258       .  A
O107        C115   1.260       .  A
O108        C115   1.263       .  A
C109        O116   1.260       .  A
C109        O110   1.265       .  A
C109        C611   1.481       .  S
C111        O113   1.262       .  A
C111        O117   1.263       .  A
C111        C167   1.465       .  S
C115        C598   1.480       .  S
In118       O120   2.225       .  S
In118       O121   2.250       .  S
In118       O129   2.225       .  S
In118       O123   2.244       .  S
In118       O125   2.275       .  S
In118       O126   2.236       .  S
In118       O127   2.205       .  S
In118       O130   2.236       .  S
C119        O125   1.266       .  A
C119        O127   1.259       .  A
O120        C128   1.259       .  A
O121        C128   1.265       .  A
C122        O129   1.260       .  A
C122        O123   1.265       .  A
C122        C591   1.475       .  S
C124        O126   1.263       .  A
C124        O130   1.262       .  A
C124        C180   1.460       .  S
C128        C578   1.483       .  S
In131       O133   2.240       .  S
In131       O134   2.234   1_554  S
In131       O142   2.218       .  S
In131       O136   2.256       .  S
In131       O138   2.284       .  S
In131       O139   2.230   1_554  S
In131       O140   2.196   1_554  S
In131       O143   2.227       .  S
C132        O138   1.266       .  A
C132        O140   1.256   1_554  A
O133        C141   1.261   1_554  A
O134        C141   1.262       .  A
C135        O142   1.261       .  A
C135        O136   1.266       .  A
C135        C608   1.486       .  S
C137        O139   1.262       .  A
C137        O143   1.262   1_556  A
C137        C150   1.455       .  S
C141        C568   1.484       .  S
In144       O146   2.237       .  S
In144       O147   2.221   1_556  S
In144       O155   2.217       .  S
In144       O149   2.254       .  S
In144       O151   2.288       .  S
In144       O152   2.229   1_566  S
In144       O153   2.198       .  S
In144       O156   2.233   1_565  S
C145        O151   1.267       .  A
C145        O153   1.257       .  A
O146        C154   1.263   1_556  A
O147        C154   1.261       .  A
C148        O155   1.258       .  A
C148        O149   1.267       .  A
C148        C588   1.483       .  S
C150        O152   1.261   1_556  A
C150        O156   1.261       .  A
C154        C558   1.471       .  S
In157       O159   2.243       .  S
In157       O160   2.234       .  S
In157       O168   2.211       .  S
In157       O162   2.254       .  S
In157       O164   2.273       .  S
In157       O165   2.238       .  S
In157       O166   2.202       .  S
In157       O169   2.231       .  S
C158        O164   1.268       .  A
C158        O166   1.259       .  A
O159        C167   1.264       .  A
O160        C167   1.263       .  A
C161        O168   1.259       .  A
C161        O162   1.266       .  A
C161        C548   1.478       .  S
C163        O165   1.265       .  A
C163        O169   1.260       .  A
C163        C538   1.481       .  S
In170       O172   2.239       .  S
In170       O173   2.231       .  S
In170       O181   2.224       .  S
In170       O175   2.265       .  S
In170       O177   2.288       .  S
In170       O178   2.231       .  S
In170       O179   2.209       .  S
In170       O182   2.228       .  S
C171        O177   1.268       .  A
C171        O179   1.258       .  A
O172        C180   1.263       .  A
O173        C180   1.261       .  A
C174        O181   1.258       .  A
C174        O175   1.267       .  A
C174        C528   1.483       .  S
C176        O178   1.262       .  A
C176        O182   1.263       .  A
C176        C521   1.478       .  S
In183       O185   2.229       .  S
In183       O186   2.226       .  S
In183       O194   2.208       .  S
In183       O188   2.252       .  S
In183       O190   2.286       .  S
In183       O191   2.231       .  S
In183       O192   2.194       .  S
In183       O195   2.235       .  S
C184        O190   1.268       .  A
C184        O192   1.257       .  A
O185        C193   1.262       .  A
O186        C193   1.262       .  A
C187        O194   1.261       .  A
C187        O188   1.267       .  A
C187        C551   1.484       .  S
C189        O191   1.262       .  A
C189        O195   1.264       .  A
C189        C508   1.477       .  S
C193        C206   1.454       .  S
In196       O198   2.225   1_565  S
In196       O199   2.227   1_565  S
In196       O207   2.219       .  S
In196       O201   2.250       .  S
In196       O203   2.281       .  S
In196       O204   2.229       .  S
In196       O205   2.190       .  S
In196       O208   2.220       .  S
C197        O203   1.267       .  A
C197        O205   1.258       .  A
O198        C206   1.262       .  A
O199        C206   1.262       .  A
C200        O207   1.259       .  A
C200        O201   1.268       .  A
C200        C531   1.486       .  S
C202        O204   1.264       .  A
C202        O208   1.260       .  A
C202        C498   1.477       .  S
In209       O211   2.224       .  S
In209       O212   2.236       .  S
In209       O220   2.229       .  S
In209       O214   2.250       .  S
In209       O216   2.279       .  S
In209       O217   2.225       .  S
In209       O218   2.202       .  S
In209       O221   2.242       .  S
C210        O216   1.268       .  A
C210        O218   1.259       .  A
C210        C366   1.466       .  S
O211        C219   1.260       .  A
O212        C219   1.265       .  A
C213        O220   1.260       .  A
C213        O214   1.266       .  A
C213        C488   1.477       .  S
C215        O217   1.263       .  A
C215        O221   1.264       .  A
C215        C271   1.461       .  S
C219        C511   1.475       .  S
In222       O224   2.230       .  S
In222       O225   2.225       .  S
In222       O233   2.218       .  S
In222       O227   2.251       .  S
In222       O229   2.282       .  S
In222       O230   2.222       .  S
In222       O231   2.195       .  S
In222       O234   2.235       .  S
C223        O229   1.268       .  A
C223        O231   1.257       .  A
C223        C379   1.464       .  S
O224        C232   1.263       .  A
O225        C232   1.262       .  A
C226        O233   1.260       .  A
C226        O227   1.266       .  A
C226        C481   1.482       .  S
C228        O230   1.261       .  A
C228        O234   1.263       .  A
C228        C284   1.457       .  S
C232        C501   1.477       .  S
In235       O237   2.234       .  S
In235       O238   2.227       .  S
In235       O246   2.224       .  S
In235       O240   2.257       .  S
In235       O242   2.278       .  S
In235       O243   2.243       .  S
In235       O244   2.210       .  S
In235       O247   2.224       .  S
C236        O242   1.267       .  A
C236        O244   1.259       .  A
C236        C405   1.467       .  S
O237        C245   1.263       .  A
O238        C245   1.263       .  A
C239        O246   1.262       .  A
C239        O240   1.267       .  A
C239        C491   1.489       .  S
C241        O243   1.263       .  A
C241        O247   1.262       .  A
C241        C254   1.458       .  S
C245        C541   1.478       .  S
In248       O250   2.217       .  S
In248       O251   2.236       .  S
In248       O259   2.216       .  S
In248       O253   2.256       .  S
In248       O255   2.288       .  S
In248       O256   2.220       .  S
In248       O257   2.193       .  S
In248       O260   2.243       .  S
C249        O255   1.268       .  A
C249        O257   1.257       .  A
C249        C392   1.464       .  S
O250        C258   1.261       .  A
O251        C258   1.264       .  A
C252        O259   1.261       .  A
C252        O253   1.267       .  A
C252        C478   1.486       .  S
C254        O256   1.261       .  A
C254        O260   1.263       .  A
C258        C518   1.479       .  S
In261       O263   2.245       .  S
In261       O264   2.228       .  S
In261       O272   2.220       .  S
In261       O266   2.259       .  S
In261       O268   2.280       .  S
In261       O269   2.244       .  S
In261       O270   2.212       .  S
In261       O273   2.235       .  S
C262        O268   1.266       .  A
C262        O270   1.258       .  A
C262        C314   1.467       .  S
O263        C271   1.263       .  A
O264        C271   1.262       .  A
C265        O272   1.259       .  A
C265        O266   1.267       .  A
C265        C471   1.481       .  S
C267        O269   1.262       .  A
C267        O273   1.262       .  A
C267        C571   1.486       .  S
In274       O276   2.233       .  S
In274       O277   2.225       .  S
In274       O285   2.211       .  S
In274       O279   2.258       .  S
In274       O281   2.274       .  S
In274       O282   2.228       .  S
In274       O283   2.196       .  S
In274       O286   2.232       .  S
C275        O281   1.269       .  A
C275        O283   1.260       .  A
C275        C327   1.465       .  S
O276        C284   1.263       .  A
O277        C284   1.263       .  A
C278        O285   1.258       .  A
C278        O279   1.269       .  A
C278        C461   1.483       .  S
C280        O282   1.265       .  A
C280        O286   1.262       .  A
C280        C561   1.473       .  S
In287       O289   2.240       .  S
In287       O290   2.234   1_554  S
In287       O298   2.218       .  S
In287       O292   2.264       .  S
In287       O294   2.294       .  S
In287       O295   2.237   1_554  S
In287       O296   2.208   1_554  S
In287       O299   2.241   1_554  S
C288        O294   1.267       .  A
C288        O296   1.257   1_554  A
C288        C353   1.471       .  S
O289        C297   1.262   1_554  A
O290        C297   1.261       .  A
C291        O298   1.258       .  A
C291        O292   1.268       .  A
C291        C458   1.484       .  S
C293        O295   1.260       .  A
C293        O299   1.263       .  A
C293        C581   1.485       .  S
C297        C310   1.459       .  S
In300       O302   2.240       .  S
In300       O303   2.235   1_556  S
In300       O311   2.218       .  S
In300       O305   2.267       .  S
In300       O307   2.299       .  S
In300       O308   2.229   1_556  S
In300       O309   2.202       .  S
In300       O312   2.245       .  S
C301        O307   1.267       .  A
C301        O309   1.256       .  A
C301        C340   1.469       .  S
O302        C310   1.262       .  A
O303        C310   1.260   1_554  A
C304        O311   1.258       .  A
C304        O305   1.268       .  A
C304        C468   1.488       .  S
C306        O308   1.261       .  A
C306        O312   1.265   1_554  A
C306        C601   1.480       .  S
In313       O315   2.233       .  S
In313       O316   2.236       .  S
In313       O324   2.215       .  S
In313       O318   2.264       .  S
In313       O320   2.275   1_655  S
In313       O321   2.235       .  S
In313       O322   2.210   1_655  S
In313       O325   2.238       .  S
C314        O320   1.267       .  A
C314        O322   1.259       .  A
O315        C323   1.262       .  A
O316        C323   1.262       .  A
C317        O324   1.260       .  A
C317        O318   1.265       .  A
C317        C448   1.485       .  S
C319        O321   1.262       .  A
C319        O325   1.262       .  A
C319        C375   1.461       .  S
C323        C691   1.482       .  S
In326       O328   2.229       .  S
In326       O329   2.232       .  S
In326       O337   2.211       .  S
In326       O331   2.247       .  S
In326       O333   2.280   1_655  S
In326       O334   2.227       .  S
In326       O335   2.198   1_655  S
In326       O338   2.229       .  S
C327        O333   1.268       .  A
C327        O335   1.259       .  A
O328        C336   1.263       .  A
O329        C336   1.264       .  A
C330        O337   1.259       .  A
C330        O331   1.269       .  A
C330        C438   1.481       .  S
C332        O334   1.263       .  A
C332        O338   1.263       .  A
C332        C388   1.457       .  S
C336        C681   1.479       .  S
In339       O341   2.230       .  S
In339       O342   2.232   1_556  S
In339       O350   2.229       .  S
In339       O344   2.249       .  S
In339       O346   2.298       .  S
In339       O347   2.229   1_556  S
In339       O348   2.205       .  S
In339       O351   2.238       .  S
C340        O346   1.266       .  A
C340        O348   1.256       .  A
O341        C349   1.263   1_556  A
O342        C349   1.261       .  A
C343        O350   1.261       .  A
C343        O344   1.266       .  A
C343        C451   1.486       .  S
C345        O347   1.260   1_556  A
C345        O351   1.262       .  A
C345        C358   1.455       .  S
C349        C721   1.477       .  S
In352       O354   2.222       .  S
In352       O355   2.228   1_554  S
In352       O363   2.215       .  S
In352       O357   2.255       .  S
In352       O359   2.292       .  S
In352       O360   2.231   1_554  S
In352       O361   2.209   1_554  S
In352       O364   2.226       .  S
C353        O359   1.267       .  A
C353        O361   1.257   1_554  A
O354        C362   1.263   1_554  A
O355        C362   1.261       .  A
C356        O363   1.259       .  A
C356        O357   1.268       .  A
C356        C441   1.482       .  S
C358        O360   1.261       .  A
C358        O364   1.262   1_556  A
C362        C698   1.475       .  S
In365       O367   2.240       .  S
In365       O368   2.230       .  S
In365       O376   2.213       .  S
In365       O370   2.260       .  S
In365       O372   2.281   1_655  S
In365       O373   2.237       .  S
In365       O374   2.205   1_655  S
In365       O377   2.231       .  S
C366        O372   1.267       .  A
C366        O374   1.258       .  A
O367        C375   1.263       .  A
O368        C375   1.261       .  A
C369        O376   1.260       .  A
C369        O370   1.266       .  A
C369        C428   1.484       .  S
C371        O373   1.263       .  A
C371        O377   1.260       .  A
C371        C621   1.482       .  S
In378       O380   2.232       .  S
In378       O381   2.231       .  S
In378       O389   2.217       .  S
In378       O383   2.243       .  S
In378       O385   2.281   1_655  S
In378       O386   2.235       .  S
In378       O387   2.204   1_655  S
In378       O390   2.234       .  S
C379        O385   1.264       .  A
C379        O387   1.258       .  A
O380        C388   1.262       .  A
O381        C388   1.261       .  A
C382        O389   1.259       .  A
C382        O383   1.263       .  A
C382        C418   1.477       .  S
C384        O386   1.260       .  A
C384        O390   1.261       .  A
C384        C628   1.480       .  S
In391       O393   2.237       .  S
In391       O394   2.236       .  S
In391       O402   2.222       .  S
In391       O396   2.251       .  S
In391       O398   2.289       .  S
In391       O399   2.238       .  S
In391       O400   2.202       .  S
In391       O403   2.240       .  S
C392        O398   1.264       .  A
C392        O400   1.256       .  A
O393        C401   1.261       .  A
O394        C401   1.260       .  A
C395        O402   1.261       .  A
C395        O396   1.265       .  A
C395        C421   1.485       .  S
C397        O399   1.261       .  A
C397        O403   1.263       .  A
C397        C641   1.477       .  S
C401        C414   1.458       .  S
In404       O406   2.234       .  S
In404       O407   2.234       .  S
In404       O415   2.229       .  S
In404       O409   2.258       .  S
In404       O411   2.283       .  S
In404       O412   2.230       .  S
In404       O413   2.212       .  S
In404       O416   2.240       .  S
C405        O411   1.266       .  A
C405        O413   1.257       .  A
O406        C414   1.262       .  A
O407        C414   1.261       .  A
C408        O415   1.261       .  A
C408        O409   1.266       .  A
C408        C431   1.487       .  S
C410        O412   1.261       .  A
C410        O416   1.262       .  A
C410        C661   1.476       .  S
C417        C418   1.404       .  A
C417        C422   1.397       .  A
C417        H424   1.083       .  S
C418        C419   1.410       .  A
C419        C420   1.398       .  A
C419       Br426   1.922       .  S
C420        C421   1.409       .  A
C420        H425   1.082       .  S
C421        C422   1.414       .  A
C422       Br423   1.920       .  S
C427        C428   1.406       .  A
C427        C432   1.397       .  A
C427        H434   1.081       .  S
C428        C429   1.411       .  A
C429        C430   1.402       .  A
C429       Br436   1.922       .  S
C430        C431   1.410       .  A
C430        H435   1.083       .  S
C431        C432   1.412       .  A
C432       Br433   1.919       .  S
C437        C438   1.402       .  A
C437        C442   1.397       .  A
C437        H444   1.083       .  S
C438        C439   1.417       .  A
C439        C440   1.400       .  A
C439       Br446   1.924       .  S
C440        C441   1.403       .  A
C440        H445   1.083       .  S
C441        C442   1.416       .  A
C442       Br443   1.923       .  S
C447        C448   1.406       .  A
C447        C452   1.397       .  A
C447        H454   1.082       .  S
C448        C449   1.412       .  A
C449        C450   1.402       .  A
C449       Br456   1.921       .  S
C450        C451   1.409       .  A
C450        H455   1.082       .  S
C451        C452   1.411       .  A
C452       Br453   1.920       .  S
C457        C458   1.402       .  A
C457        C462   1.400       .  A
C457        H464   1.082       .  S
C458        C459   1.416       .  A
C459        C460   1.399       .  A
C459       Br466   1.922       .  S
C460        C461   1.402       .  A
C460        H465   1.083       .  S
C461        C462   1.417       .  A
C462       Br463   1.923       .  S
C467        C468   1.404       .  A
C467        C472   1.401       .  A
C467        H474   1.081       .  S
C468        C469   1.418       .  A
C469        C470   1.399       .  A
C469       Br476   1.922       .  S
C470        C471   1.401       .  A
C470        H475   1.082       .  S
C471        C472   1.413       .  A
C472       Br473   1.921       .  S
C477        C478   1.409       .  A
C477        C482   1.399       .  A
C477        H484   1.085       .  S
C478        C479   1.412       .  A
C479        C480   1.399       .  A
C479       Br486   1.921       .  S
C480        C481   1.407       .  A
C480        H485   1.086       .  S
C481        C482   1.410       .  A
C482       Br483   1.924       .  S
C487        C488   1.404       .  A
C487        C492   1.402       .  A
C487        H494   1.083       .  S
C488        C489   1.408       .  A
C489        C490   1.399       .  A
C489       Br496   1.922       .  S
C490        C491   1.409       .  A
C490        H495   1.082       .  S
C491        C492   1.414       .  A
C492       Br493   1.919       .  S
C497        C498   1.403       .  A
C497        C502   1.395       .  A
C497        H504   1.084       .  S
C498        C499   1.414       .  A
C499        C500   1.396       .  A
C499       Br506   1.923       .  S
C500        C501   1.404       .  A
C500        H505   1.084       .  S
C501        C502   1.412       .  A
C502       Br503   1.920       .  S
C507        C508   1.404       .  A
C507        C512   1.397       .  A
C507        H514   1.085       .  S
C508        C509   1.412       .  A
C509        C510   1.396       .  A
C509       Br516   1.921       .  S
C510        C511   1.403       .  A
C510        H515   1.087       .  S
C511        C512   1.413       .  A
C512       Br513   1.924       .  S
C517        C518   1.405       .  A
C517        C522   1.399       .  A
C517        H524   1.087       .  S
C518        C519   1.413       .  A
C519        C520   1.395       .  A
C519       Br526   1.923       .  S
C520        C521   1.403       .  A
C520        H525   1.085       .  S
C521        C522   1.412       .  A
C522       Br523   1.922       .  S
C527        C528   1.402       .  A
C527        C532   1.400       .  A
C527        H534   1.082       .  S
C528        C529   1.414       .  A
C529        C530   1.399       .  A
C529       Br536   1.922       .  S
C530        C531   1.404       .  A
C530        H535   1.081       .  S
C531        C532   1.419       .  A
C532       Br533   1.924       .  S
C537        C538   1.405       .  A
C537        C542   1.397       .  A
C537        H544   1.085       .  S
C538        C539   1.416       .  A
C539        C540   1.399       .  A
C539       Br546   1.924       .  S
C540        C541   1.404       .  A
C540        H545   1.083       .  S
C541        C542   1.410       .  A
C542       Br543   1.921       .  S
C547        C548   1.406       .  A
C547        C552   1.399       .  A
C547        H554   1.085       .  S
C548        C549   1.410       .  A
C549        C550   1.398       .  A
C549       Br556   1.925       .  S
C550        C551   1.409       .  A
C550        H555   1.086       .  S
C551        C552   1.412       .  A
C552       Br553   1.923       .  S
C557        C558   1.403       .  A
C557        C562   1.398       .  A
C557        H564   1.086       .  S
C558        C559   1.409       .  A
C559        C560   1.395       .  A
C559       Br566   1.921       .  S
C560        C561   1.403       .  A
C560        H565   1.086       .  S
C561        C562   1.413       .  A
C562       Br563   1.923       .  S
C567        C568   1.405       .  A
C567        C572   1.398       .  A
C567        H574   1.084       .  S
C568        C569   1.413       .  A
C569        C570   1.399       .  A
C569       Br576   1.922   1_556  S
C570        C571   1.407       .  A
C570        H575   1.083       .  S
C571        C572   1.415       .  A
C572       Br573   1.922       .  S
C577        C578   1.404       .  A
C577        C582   1.399       .  A
C577        H584   1.084       .  S
C578        C579   1.415       .  A
C579        C580   1.398       .  A
C579       Br586   1.924       .  S
C580        C581   1.405       .  A
C580        H585   1.083       .  S
C581        C582   1.415       .  A
C582       Br583   1.921       .  S
C587        C588   1.405       .  A
C587        C592   1.399       .  A
C587        H594   1.081       .  S
C588        C589   1.418       .  A
C589        C590   1.398       .  A
C589       Br596   1.925       .  S
C590        C591   1.401       .  A
C590        H595   1.082       .  S
C591        C592   1.409       .  A
C592       Br593   1.920       .  S
C597        C598   1.402       .  A
C597        C602   1.398       .  A
C597        H604   1.084       .  S
C598        C599   1.412       .  A
C599        C600   1.400       .  A
C599       Br606   1.919       .  S
C600        C601   1.404       .  A
C600        H605   1.084   1_554  S
C601        C602   1.414       .  A
C602       Br603   1.921       .  S
C607        C608   1.408       .  A
C607        C612   1.398       .  A
C607        H614   1.082       .  S
C608        C609   1.413       .  A
C609        C610   1.400       .  A
C609       Br616   1.921       .  S
C610        C611   1.407       .  A
C610        H615   1.083       .  S
C611        C612   1.410       .  A
C612       Br613   1.921       .  S
C617        C618   1.405       .  A
C617        C622   1.397       .  A
C617        H624   1.083       .  S
C618        C619   1.414       .  A
C619        C620   1.397       .  A
C619       Br626   1.924       .  S
C620        C621   1.405       .  A
C620        H625   1.084       .  S
C621        C622   1.414       .  A
C622       Br623   1.923       .  S
C627        C628   1.405       .  A
C627        C632   1.397       .  A
C627        H634   1.084       .  S
C628        C629   1.413       .  A
C629        C630   1.398       .  A
C629       Br636   1.923       .  S
C630        C631   1.405       .  A
C630        H635   1.085       .  S
C631        C632   1.412       .  A
C632       Br633   1.921       .  S
C637        C638   1.403       .  A
C637        C642   1.398       .  A
C637        H644   1.084       .  S
C638        C639   1.411       .  A
C639        C640   1.398       .  A
C639       Br646   1.920       .  S
C640        C641   1.403       .  A
C640        H645   1.084       .  S
C641        C642   1.412       .  A
C642       Br643   1.920       .  S
C647        C648   1.402       .  A
C647        C652   1.397       .  A
C647        H654   1.082       .  S
C648        C649   1.416       .  A
C649        C650   1.400       .  A
C649       Br656   1.924       .  S
C650        C651   1.403       .  A
C650        H655   1.081       .  S
C651        C652   1.415       .  A
C652       Br653   1.923   1_565  S
C657        C658   1.403       .  A
C657        C662   1.395       .  A
C657        H664   1.087       .  S
C658        C659   1.415       .  A
C659        C660   1.399       .  A
C659       Br666   1.922       .  S
C660        C661   1.403       .  A
C660        H665   1.085       .  S
C661        C662   1.411       .  A
C662       Br663   1.922       .  S
C667        C668   1.407       .  A
C667        C672   1.402       .  A
C667        H674   1.084       .  S
C668        C669   1.410       .  A
C669        C670   1.395       .  A
C669       Br676   1.921       .  S
C670        C671   1.406       .  A
C670        H675   1.084       .  S
C671        C672   1.413       .  A
C672       Br673   1.921       .  S
C677        C678   1.404       .  A
C677        C682   1.396       .  A
C677        H684   1.084       .  S
C678        C679   1.413       .  A
C679        C680   1.398       .  A
C679       Br686   1.922   1_554  S
C680        C681   1.405       .  A
C680        H685   1.083       .  S
C681        C682   1.412       .  A
C682       Br683   1.921       .  S
C687        C688   1.405       .  A
C687        C692   1.397       .  A
C687        H694   1.085       .  S
C688        C689   1.413       .  A
C689        C690   1.398       .  A
C689       Br696   1.923   1_556  S
C690        C691   1.406       .  A
C690        H695   1.084       .  S
C691        C692   1.413       .  A
C692       Br693   1.922       .  S
C697        C698   1.404       .  A
C697        C702   1.394       .  A
C697        H704   1.085       .  S
C698        C699   1.412       .  A
C699        C700   1.395       .  A
C699       Br706   1.923       .  S
C700        C701   1.404       .  A
C700        H705   1.087       .  S
C701        C702   1.413       .  A
C702       Br703   1.923       .  S
C707        C708   1.409       .  A
C707        C712   1.402       .  A
C707        H714   1.083       .  S
C708        C709   1.412       .  A
C709        C710   1.401       .  A
C709       Br716   1.920       .  S
C710        C711   1.408       .  A
C710        H715   1.083       .  S
C711        C712   1.412       .  A
C712       Br713   1.922       .  S
C717        C718   1.403       .  A
C717        C722   1.395       .  A
C717        H724   1.084       .  S
C718        C719   1.411       .  A
C719        C720   1.397       .  A
C719       Br726   1.921       .  S
C720        C721   1.404       .  A
C720        H725   1.084   1_554  S
C721        C722   1.413       .  A
C722       Br723   1.921       .  S
C727        C728   1.410       .  A
C727        C732   1.399       .  A
C727        H734   1.082       .  S
C728        C729   1.412       .  A
C729        C730   1.398       .  A
C729       Br736   1.919       .  S
C730        C731   1.405       .  A
C730        H735   1.083       .  S
C731        C732   1.409       .  A
C732       Br733   1.922       .  S
