geometry optimzed in LAMMPS
_audit_creation_date              2020-12-01 
_audit_creation_method            'lammps2cif' 
_symmetry_space_group_name_H-M    'P1' 
_symmetry_Int_Tables_number       1 
_symmetry_cell_setting            triclinic 
loop_ 
_symmetry_equiv_pos_as_xyz 
  x,y,z 
_cell_length_a                    27.86154265 
_cell_length_b                    27.917545578470136 
_cell_length_c                    28.096838603405025 
_cell_angle_alpha                 90.2618151841808 
_cell_angle_beta                  90.12156268587364 
_cell_angle_gamma                 90.29545866648299 
loop_ 
_atom_site_label 
_atom_site_type_symbol 
_atom_site_fract_x 
_atom_site_fract_y 
_atom_site_fract_z 
_atom_site_charge 
C1          C  0.12823627  0.05566730  0.13213558     0.88600
C2          C  0.09446902  0.08806014  0.16026948    -0.51700
C3          C  0.06674496  0.11740385  0.13334756     0.11500
C4          C  0.07368860  0.10954134  0.07880759     0.22400
C5          C  0.09546209  0.02672406  0.09806242    -0.52400
C6          C  0.06554072  0.05400396  0.06955445     0.11600
C7          C  0.15617483  0.08949741  0.09969616    -0.51900
C8          C  0.12844314  0.11814575  0.07207642     0.12200
H9          H  0.09621624  0.09120975  0.19884084     0.16700
H10         H  0.05168013  0.13379984  0.05664432     0.02400
H11         H  0.09619077  0.98787978  0.09621144     0.17000
H12         H  0.19507383  0.09279401  0.10083626     0.16800
C13         C  0.93095438  0.12553386  0.00499244     0.88600
C14         C  0.90450182  0.09076137  0.97192937    -0.51700
C15         C  0.93326910  0.06476654  0.94269781     0.11500
C16         C  0.98776321  0.07491771  0.95081672     0.22400
C17         C  0.96592219  0.09408605  0.03345145    -0.52400
C18         C  0.99702846  0.06693680  0.00623472     0.11600
C19         C  0.96257387  0.15567424  0.97207372    -0.51900
C20         C  0.99152273  0.13006371  0.94252098     0.12200
H21         H  0.86558174  0.09001920  0.96881706     0.16700
H22         H  0.01069532  0.05366740  0.92651223     0.02400
H23         H  0.96547514  0.09261243  0.07206066     0.17000
H24         H  0.95851921  0.19425383  0.96889665     0.16800
C25         C  0.93448438  0.92829840  0.05617046     0.88600
C26         C  0.90557325  0.96191643  0.08818087    -0.51700
C27         C  0.93235046  0.99047122  0.11741986     0.11500
C28         C  0.98745111  0.98399018  0.11013375     0.22400
C29         C  0.96812306  0.96154066  0.02757674    -0.52400
C30         C  0.99743994  0.99108938  0.05480422     0.11600
C31         C  0.96742520  0.90126403  0.09029461    -0.51900
C32         C  0.99444064  0.92965937  0.11949966     0.12200
H33         H  0.86668480  0.95981108  0.09084423     0.16700
H34         H  0.00874053  0.00719793  0.13444089     0.02400
H35         H  0.96846894  0.96198362  0.98894156     0.17000
H36         H  0.96586638  0.86255707  0.09429141     0.16800
C37         C  0.13175152  0.00714675  0.93201297     0.88600
C38         C  0.09970769  0.97278530  0.90342891    -0.51700
C39         C  0.07232468  0.94261903  0.93010823     0.11500
C40         C  0.07815395  0.95114368  0.98460674     0.22400
C41         C  0.09712640  0.03476119  0.96509194    -0.52400
C42         C  0.06750706  0.00634469  0.99304816     0.11600
C43         C  0.16024846  0.97498862  0.96536283    -0.51900
C44         C  0.13324641  0.94491473  0.99233433     0.12200
H45         H  0.10183125  0.96965150  0.86489800     0.16700
H46         H  0.05663572  0.92608293  0.00652393     0.02400
H47         H  0.09635498  0.07361605  0.96660313     0.17000
H48         H  0.19922238  0.97302884  0.96443762     0.16800
C49         C  0.03190771  0.02953454  0.03075946    -0.00400
C50         C  0.72372489  0.73473439  0.51594575     0.82300
N51         N  0.77112626  0.72145146  0.51733155    -0.76000
C52         C  0.80604818  0.75534463  0.51176337     0.84700
N53         N  0.79309815  0.80077117  0.50469471    -0.76000
C54         C  0.74760797  0.81559300  0.50527812     0.84800
N55         N  0.71196156  0.78235281  0.51139151    -0.77700
C56         C  0.52032662  0.71974972  0.73062305     0.82300
N57         N  0.52080884  0.76721843  0.71765302    -0.76000
C58         C  0.51460357  0.80188193  0.75148245     0.84700
N59         N  0.50833025  0.78854100  0.79664933    -0.76000
C60         C  0.50924722  0.74297668  0.81102107     0.84800
N61         N  0.51565825  0.70766774  0.77781167    -0.77700
C62         C  0.52858423  0.72034293  0.33483670     0.82300
N63         N  0.52753848  0.76785028  0.34835686    -0.76000
C64         C  0.53272095  0.80268522  0.31468873     0.84700
N65         N  0.53923584  0.78945828  0.26945145    -0.76000
C66         C  0.53970982  0.74392720  0.25476730     0.84800
N67         N  0.53384524  0.70845753  0.28758513    -0.77700
C68         C  0.71738468  0.53544361  0.32509885     0.82300
N69         N  0.76465303  0.53424543  0.33975257    -0.76000
C70         C  0.80054618  0.53950377  0.30695848     0.84700
N71         N  0.78848926  0.54613857  0.26136562    -0.76000
C72         C  0.74315926  0.54641950  0.24572968     0.84800
N73         N  0.70683283  0.54059788  0.27767539    -0.77700
O74         O  0.45789133  0.74243321  0.04428469    -0.72400
O75         O  0.59422003  0.73824693  0.02267259    -0.72400
O76         O  0.53658261  0.73704034  0.09998151    -0.72400
O77         O  0.51529044  0.73646201  0.96664060    -0.72500
O78         O  0.51750459  0.81639194  0.96540549    -0.72400
O79         O  0.53960060  0.81696583  0.10076573    -0.72400
O80         O  0.59614942  0.81818577  0.02259864    -0.72400
O81         O  0.46113914  0.82233007  0.04347423    -0.72400
Ni82       Ni  0.52589184  0.73570306  0.03338335     1.25400
Ni83       Ni  0.52871085  0.82140328  0.03304859     1.25400
C84         C  0.43727547  0.78353676  0.04735828     0.89800
C85         C  0.61746989  0.77808122  0.01929647     0.89800
C86         C  0.54146910  0.77641484  0.12240081     0.89800
C87         C  0.51291301  0.77570728  0.94399146     0.90000
O88         O  0.80996100  0.50710028  0.95735032    -0.72400
O89         O  0.81548062  0.53780548  0.09111166    -0.72400
O90         O  0.81492497  0.45636485  0.03852393    -0.72400
O91         O  0.81777212  0.58928750  0.00970786    -0.72500
O92         O  0.73773699  0.59176865  0.01151425    -0.72400
O93         O  0.73485287  0.45730552  0.04128304    -0.72400
O94         O  0.73538215  0.53922744  0.09218059    -0.72400
O95         O  0.72996024  0.50949705  0.96084175    -0.72400
Ni96       Ni  0.81748418  0.52265988  0.02402074     1.25400
Ni97       Ni  0.73163467  0.52459427  0.02652039     1.25400
C98         C  0.76838742  0.50284452  0.93752676     0.89800
C99         C  0.77551375  0.54279935  0.11352071     0.89800
C100        C  0.77501948  0.43493006  0.04459059     0.89800
C101        C  0.77876273  0.61255596  0.00617190     0.90000
C102        C  0.83489069  0.82781324  0.01059562     0.82300
N103        N  0.84691682  0.78021911  0.00635752    -0.76000
C104        C  0.81151036  0.74653900  0.00073784     0.84700
N105        N  0.76576264  0.76087018  0.00038291    -0.76000
C106        C  0.75252157  0.80649205  0.00626045     0.84800
N107        N  0.78733586  0.84075127  0.01150175    -0.77700
C108        C  0.70890715  0.52414015  0.72902623     0.82300
N109        N  0.75625183  0.52904973  0.71642817    -0.76000
C110        C  0.79111115  0.52065394  0.74933575     0.84700
N111        N  0.77831263  0.50681389  0.79290424    -0.76000
C112        C  0.73267745  0.50329757  0.80704069     0.84800
N113        N  0.69700608  0.51274081  0.77506614    -0.77700
C114        C  0.33562266  0.72838232  0.55163310     0.82300
N115        N  0.28761518  0.71698624  0.55086022    -0.76000
C116        C  0.25444024  0.75243035  0.55541582     0.84700
N117        N  0.26965166  0.79765360  0.56050662    -0.76000
C118        C  0.31592900  0.81046399  0.56017657     0.84800
N119        N  0.34982544  0.77558109  0.55513418    -0.77700
O120        O  0.03733417  0.75052742  0.46766836    -0.72400
O121        O  0.02290603  0.74691486  0.60353356    -0.72400
O122        O  0.96224770  0.74588798  0.52846760    -0.72400
O123        O  0.09796078  0.74543923  0.54266072    -0.72500
O124        O  0.09919637  0.82540992  0.54440223    -0.72400
O125        O  0.96212922  0.82582191  0.53175485    -0.72400
O126        O  0.02460448  0.82685390  0.60569857    -0.72400
O127        O  0.03676457  0.83044404  0.47038611    -0.72400
Ni128      Ni  0.03010442  0.74433098  0.53548395     1.25400
Ni129      Ni  0.03069324  0.83004728  0.53812961     1.25400
C130        C  0.03917817  0.79142787  0.44677984     0.89800
C131        C  0.02158228  0.78666587  0.62684238     0.89800
C132        C  0.93984798  0.78549921  0.52800792     0.89800
C133        C  0.12089608  0.78488386  0.54582105     0.90000
O134        O  0.08502092  0.51871360  0.81488740    -0.72400
O135        O  0.94732780  0.52980671  0.82017036    -0.72400
O136        O  0.01048726  0.45631839  0.81949737    -0.72400
O137        O  0.02182901  0.59230289  0.82275506    -0.72500
O138        O  0.01928311  0.59469625  0.74340212    -0.72400
O139        O  0.00733882  0.45712217  0.74012672    -0.72400
O140        O  0.94569040  0.53135533  0.74074730    -0.72400
O141        O  0.08110374  0.52045701  0.73556230    -0.72400
Ni142      Ni  0.01630966  0.52425726  0.82223654     1.25400
Ni143      Ni  0.01326464  0.52601314  0.73713489     1.25400
C144        C  0.10543998  0.51757930  0.77375666     0.89800
C145        C  0.92411759  0.53203169  0.78055525     0.89800
C146        C  0.00712011  0.43425868  0.77985945     0.89800
C147        C  0.02210260  0.61595643  0.78413224     0.90000
C148        C  0.03200419  0.83108462  0.84343461     0.82300
N149        N  0.03038223  0.78309332  0.85444242    -0.76000
C150        C  0.02445131  0.75006483  0.81876562     0.84700
N151        N  0.02006642  0.76551796  0.77397403    -0.76000
C152        C  0.02239181  0.81171806  0.76177025     0.84800
N153        N  0.02876931  0.84523020  0.79673610    -0.77700
C154        C  0.31923484  0.51959962  0.70995268     0.82300
N155        N  0.33411286  0.52504017  0.75651916    -0.76000
C156        C  0.30080143  0.52847549  0.79205155     0.84700
N157        N  0.25438134  0.52552459  0.78053491    -0.76000
C158        C  0.23831497  0.51925835  0.73611051     0.84800
N159        N  0.27089753  0.51649194  0.69981837    -0.77700
C160        C  0.73816446  0.34317722  0.54411471     0.82300
N161        N  0.78603894  0.35499425  0.54218840    -0.76000
C162        C  0.81951685  0.32008734  0.54819586     0.84700
N163        N  0.80477125  0.27527490  0.55633889    -0.76000
C164        C  0.75870872  0.26191840  0.55613386     0.84800
N165        N  0.72448629  0.29609510  0.54950652    -0.77700
O166        O  0.74962769  0.05136860  0.46253656    -0.72400
O167        O  0.74917751  0.02713145  0.59771022    -0.72400
O168        O  0.74750344  0.10620000  0.54252261    -0.72400
O169        O  0.74381615  0.97230862  0.51795994    -0.72500
O170        O  0.82386492  0.96976300  0.51722808    -0.72400
O171        O  0.82760604  0.10537627  0.54331330    -0.72400
O172        O  0.82924547  0.02545370  0.59674418    -0.72400
O173        O  0.82967899  0.04958518  0.46355421    -0.72400
Ni174      Ni  0.74464839  0.03932991  0.53016243     1.25400
Ni175      Ni  0.83049518  0.03749792  0.53019205     1.25400
C176        C  0.79033937  0.05385110  0.44089515     0.89800
C177        C  0.78978031  0.02274802  0.61929732     0.89800
C178        C  0.78750580  0.12779230  0.54751547     0.89800
C179        C  0.78261599  0.94897368  0.51327142     0.90000
O180        O  0.55198759  0.09491315  0.82067818    -0.72400
O181        O  0.52885810  0.95889457  0.82120118    -0.72400
O182        O  0.60788757  0.01587641  0.82458436    -0.72400
O183        O  0.47270993  0.03780868  0.82374171    -0.72500
O184        O  0.47241768  0.03722453  0.74431453    -0.72400
O185        O  0.60849604  0.01471654  0.74514926    -0.72400
O186        O  0.52936104  0.95872071  0.74175838    -0.72400
O187        O  0.55174857  0.09365808  0.74125734    -0.72400
Ni188      Ni  0.54033885  0.02692486  0.82542741     1.25400
Ni189      Ni  0.54052471  0.02610114  0.74028066     1.25400
C190        C  0.55549467  0.11655620  0.78042768     0.89800
C191        C  0.52559909  0.93657732  0.78110159     0.89800
C192        C  0.63036742  0.01135703  0.78539567     0.89800
C193        C  0.45026406  0.04101076  0.78432378     0.90000
C194        C  0.84748002  0.02014331  0.83272993     0.82300
N195        N  0.80038424  0.01529865  0.84656968    -0.76000
C196        C  0.76558590  0.00754351  0.81307337     0.84700
N197        N  0.77835866  0.00556694  0.76722175    -0.76000
C198        C  0.82341250  0.01212840  0.75213829     0.84800
N199        N  0.85882571  0.01963489  0.78511958    -0.77700
C200        C  0.54546407  0.33338228  0.73216017     0.82300
N201        N  0.55085707  0.28627655  0.71834620    -0.76000
C202        C  0.55733207  0.25169856  0.75212445     0.84700
N203        N  0.55741856  0.26470431  0.79799422    -0.76000
C204        C  0.55029986  0.30964065  0.81291796     0.84800
N205        N  0.54420027  0.34477633  0.77980890    -0.77700
O206        O  0.24027164  0.52595099  0.08737411    -0.72400
O207        O  0.23600532  0.53483382  0.95043012    -0.72400
O208        O  0.23323380  0.46243818  0.01415996    -0.72400
O209        O  0.23608692  0.59814655  0.02335171    -0.72500
O210        O  0.31616337  0.59804843  0.02058915    -0.72400
O211        O  0.31329691  0.46065935  0.01199199    -0.72400
O212        O  0.31605217  0.53314014  0.94863230    -0.72400
O213        O  0.32027627  0.52569041  0.08446637    -0.72400
Ni214      Ni  0.23352888  0.53033889  0.01897083     1.25400
Ni215      Ni  0.31934659  0.52929416  0.01640733     1.25400
C216        C  0.28144936  0.52495813  0.10838703     0.89800
C217        C  0.27582213  0.53539155  0.92716057     0.89800
C218        C  0.27227328  0.43922128  0.01105656     0.89800
C219        C  0.27599534  0.62047896  0.02310909     0.90000
C220        C  0.22171622  0.83540709  0.03151539     0.82300
N221        N  0.20975901  0.78768827  0.02841638    -0.76000
C222        C  0.24467008  0.75399153  0.03343768     0.84700
N223        N  0.28975449  0.76838180  0.04166085    -0.76000
C224        C  0.30311550  0.81436705  0.04400801     0.84800
N225        N  0.26890244  0.84879577  0.03830019    -0.77700
O226        O  0.02930919  0.46846366  0.31290276    -0.72400
O227        O  0.02798917  0.60554025  0.31718127    -0.72400
O228        O  0.96001170  0.53568723  0.31889184    -0.72400
O229        O  0.09763267  0.53830080  0.31650058    -0.72500
O230        O  0.09639451  0.54041800  0.23712569    -0.72400
O231        O  0.95856022  0.53713947  0.23949173    -0.72400
O232        O  0.02649567  0.60725528  0.23776208    -0.72400
O233        O  0.02828130  0.47042181  0.23348320    -0.72400
Ni234      Ni  0.02883167  0.53690043  0.31920722     1.25400
Ni235      Ni  0.02738043  0.53889318  0.23410311     1.25400
C236        C  0.02854320  0.44699757  0.27232768     0.89800
C237        C  0.02720184  0.62884946  0.27786360     0.89800
C238        C  0.93669084  0.53569182  0.27977045     0.89800
C239        C  0.11963892  0.54016657  0.27674267     0.90000
C240        C  0.03066822  0.84630005  0.23254576     0.82300
N241        N  0.02970588  0.79894002  0.21918597    -0.76000
C242        C  0.03320345  0.76420878  0.25289209     0.84700
N243        N  0.03785700  0.77731614  0.29856905    -0.76000
C244        C  0.03828803  0.82305501  0.31320753     0.84800
N245        N  0.03423731  0.85843398  0.27995145    -0.77700
C246        C  0.33906879  0.54212329  0.32347152     0.82300
N247        N  0.35070666  0.53745438  0.27594173    -0.76000
C248        C  0.31485954  0.53359095  0.24253359     0.84700
N249        N  0.26916455  0.53513912  0.25712826    -0.76000
C250        C  0.25631097  0.54021969  0.30275378     0.84800
N251        N  0.29150468  0.54361100  0.33661489    -0.77700
O252        O  0.50886742  0.23709533  0.10205377    -0.72400
O253        O  0.53185591  0.23625419  0.96683988    -0.72400
O254        O  0.58782699  0.23235376  0.04562136    -0.72400
O255        O  0.45303286  0.23402695  0.02322753    -0.72500
O256        O  0.45384273  0.31399173  0.02257054    -0.72400
O257        O  0.58976784  0.31230079  0.04625196    -0.72400
O258        O  0.53323519  0.31620460  0.96777639    -0.72400
O259        O  0.51039961  0.31702867  0.10101826    -0.72400
Ni260      Ni  0.52034512  0.23201162  0.03443736     1.25400
Ni261      Ni  0.52186089  0.31773721  0.03440997     1.25400
C262        C  0.50606623  0.27783801  0.12357902     0.89800
C263        C  0.53613611  0.27668251  0.94527471     0.89800
C264        C  0.61099835  0.27158426  0.04968032     0.89800
C265        C  0.43126740  0.27376713  0.01912139     0.90000
C266        C  0.82756437  0.22004967  0.05003673     0.82300
N267        N  0.77994169  0.20675661  0.05181352    -0.76000
C268        C  0.74557686  0.24118191  0.05690424     0.84700
N269        N  0.75937685  0.28706963  0.05936754    -0.76000
C270        C  0.80505969  0.30144156  0.05609765     0.84800
N271        N  0.83993888  0.26772879  0.05108589    -0.77700
O272        O  0.46878542  0.03159780  0.32133744    -0.72400
O273        O  0.60665188  0.02586579  0.31992039    -0.72400
O274        O  0.54092953  0.09705826  0.32332580    -0.72400
O275        O  0.53437034  0.96058911  0.32424656    -0.72500
O276        O  0.53351871  0.95933423  0.24480775    -0.72400
O277        O  0.53992458  0.09696162  0.24389242    -0.72400
O278        O  0.60520583  0.02556561  0.24049245    -0.72400
O279        O  0.46837597  0.03046946  0.24189834    -0.72400
Ni280      Ni  0.53776883  0.02883369  0.32505026     1.25400
Ni281      Ni  0.53675900  0.02806901  0.23989603     1.25400
C282        C  0.44603676  0.03138751  0.28141380     0.89800
C283        C  0.62846640  0.02504172  0.27957979     0.89800
C284        C  0.54133445  0.11950493  0.28395527     0.89800
C285        C  0.53246759  0.93751843  0.28508245     0.90000
C286        C  0.84508424  0.03237301  0.22781910     0.82300
N287        N  0.85735305  0.04124057  0.27458238    -0.76000
C288        C  0.82199151  0.04855404  0.30758909     0.84700
N289        N  0.77614299  0.04579478  0.29354768    -0.76000
C290        C  0.76278831  0.03526833  0.24892612     0.84800
N291        N  0.79745099  0.02881725  0.21525031    -0.77700
C292        C  0.52966231  0.33591687  0.33471546     0.82300
N293        N  0.51903394  0.34707827  0.28826663    -0.76000
C294        C  0.51251356  0.31109447  0.25571366     0.84700
N295        N  0.51788557  0.26572164  0.26973731    -0.76000
C296        C  0.53010950  0.25349706  0.31407450     0.84800
N297        N  0.53574543  0.28879812  0.34747380    -0.77700
O298        O  0.32654668  0.04970459  0.59941635    -0.72400
O299        O  0.32497392  0.01609349  0.46611062    -0.72400
O300        O  0.33051709  0.09884787  0.51668288    -0.72400
O301        O  0.32815565  0.96667297  0.54858934    -0.72500
O302        O  0.24805840  0.96701167  0.54963651    -0.72400
O303        O  0.25043471  0.10073787  0.51634504    -0.72400
O304        O  0.24490383  0.01750970  0.46727413    -0.72400
O305        O  0.24646230  0.05048314  0.59898940    -0.72400
Ni306      Ni  0.33041535  0.03278562  0.53273252     1.25400
Ni307      Ni  0.24455764  0.03397868  0.53312487     1.25400
C308        C  0.28619010  0.05536689  0.62100935     0.89800
C309        C  0.28413489  0.01170938  0.44487151     0.89800
C310        C  0.29146345  0.12150150  0.51089542     0.89800
C311        C  0.28831924  0.94494753  0.55412449     0.90000
C312        C  0.23320435  0.05348018  0.83499489     0.82300
N313        N  0.28089657  0.05152974  0.84774528    -0.76000
C314        C  0.31558446  0.05664115  0.81372317     0.84700
N315        N  0.30205217  0.06344251  0.76850936    -0.76000
C316        C  0.25613996  0.06391792  0.75439598     0.84800
N317        N  0.22096282  0.05845478  0.78782106    -0.77700
O318        O  0.04735957  0.31681401  0.59690565    -0.72400
O319        O  0.03867750  0.32099399  0.46001426    -0.72400
O320        O  0.97514243  0.32384243  0.53267696    -0.72400
O321        O  0.11049886  0.32080613  0.52428923    -0.72500
O322        O  0.10933928  0.24080530  0.52253121    -0.72400
O323        O  0.97196526  0.24395233  0.52924314    -0.72400
O324        O  0.03729734  0.24107053  0.45806607    -0.72400
O325        O  0.04409634  0.23697505  0.59371275    -0.72400
Ni326      Ni  0.04296804  0.32348187  0.52860759     1.25400
Ni327      Ni  0.04056300  0.23778170  0.52582710     1.25400
C328        C  0.04711764  0.27573918  0.61766580     0.89800
C329        C  0.03700128  0.28119359  0.43664384     0.89800
C330        C  0.95122915  0.28494847  0.53208869     0.89800
C331        C  0.13216794  0.28094697  0.52180885     0.90000
C332        C  0.02283414  0.21846482  0.83022010     0.82300
N333        N  0.01545785  0.26556963  0.84267351    -0.76000
C334        C  0.01757794  0.30030599  0.80867593     0.84700
N335        N  0.02781387  0.28765471  0.76390356    -0.76000
C336        C  0.03524424  0.24234678  0.75016409     0.84800
N337        N  0.03219802  0.20677348  0.78345596    -0.77700
C338        C  0.34555116  0.33587492  0.51242937     0.82300
N339        N  0.35872176  0.28865859  0.50747387    -0.76000
C340        C  0.32419778  0.25466601  0.49920740     0.84700
N341        N  0.27841502  0.26841338  0.49708845    -0.76000
C342        C  0.26424755  0.31334709  0.50520287     0.84800
N343        N  0.29796823  0.34793214  0.51279436    -0.77700
C344        C  0.03330711  0.23021358  0.22021515     0.82300
N345        N  0.03403017  0.21778264  0.26757384    -0.76000
C346        C  0.03174508  0.25267939  0.30173221     0.84700
N347        N  0.02892078  0.29835437  0.28797362    -0.76000
C348        C  0.02880484  0.31202495  0.24232956     0.84800
N349        N  0.03118877  0.27769725  0.20762629    -0.77700
C350        C  0.22922588  0.01512419  0.23103991     0.82300
N351        N  0.27667806  0.01960548  0.21838783    -0.76000
C352        C  0.31145398  0.01785631  0.25264918     0.84700
N353        N  0.29836909  0.01113145  0.29794154    -0.76000
C354        C  0.25259734  0.00733692  0.31183594     0.84800
N355        N  0.21716419  0.01000226  0.27822228    -0.77700
C356        C  0.21450784  0.22532860  0.02215116     0.82300
N357        N  0.26174980  0.21157889  0.01977428    -0.76000
C358        C  0.29636691  0.24489270  0.01027383     0.84700
N359        N  0.28320898  0.29037293  0.00379430    -0.76000
C360        C  0.23798121  0.30557270  0.00817377     0.84800
N361        N  0.20275475  0.27283321  0.01763445    -0.77700
C362        C  0.50061356  0.43263144  0.63217966     0.88600
C363        C  0.47481943  0.40228687  0.59478517    -0.51700
C364        C  0.44724563  0.42738916  0.56390647     0.11500
C365        C  0.44956062  0.48246976  0.57188202     0.22400
C366        C  0.52997220  0.46960009  0.60381100    -0.52400
C367        C  0.50526560  0.49569999  0.56926308     0.11600
C368        C  0.46159937  0.46207318  0.65583036    -0.51900
C369        C  0.43390574  0.48787044  0.62552386     0.12200
H370        H  0.47487506  0.36332678  0.59546382     0.16700
H371        H  0.42610748  0.50205580  0.54676695     0.02400
H372        H  0.56677007  0.47532366  0.61375185     0.17000
H373        H  0.45405643  0.45975786  0.69372921     0.16800
C374        C  0.63626947  0.43799329  0.49709014     0.88600
C375        C  0.66011055  0.46963418  0.46042964    -0.51700
C376        C  0.62921333  0.49437933  0.43256235     0.11500
C377        C  0.57486391  0.48491968  0.44514649     0.22400
C378        C  0.60489331  0.47281601  0.52541776    -0.52400
C379        C  0.56892063  0.49688164  0.50079740     0.11600
C380        C  0.60177056  0.40583389  0.46915708    -0.51900
C381        C  0.57065633  0.42943875  0.44053666     0.12200
H382        H  0.69876457  0.47021326  0.45495737     0.16700
H383        H  0.55089820  0.50201628  0.41984818     0.02400
H384        H  0.61533120  0.48124256  0.56128259     0.17000
H385        H  0.60536200  0.36706000  0.46813403     0.16800
C386        C  0.62415311  0.63467181  0.56027561     0.88600
C387        C  0.65208852  0.60289366  0.59473235    -0.51700
C388        C  0.62421836  0.57418204  0.62244236     0.11500
C389        C  0.56974830  0.57912486  0.61223343     0.22400
C390        C  0.59320217  0.59962419  0.53063377    -0.52400
C391        C  0.56435062  0.56909227  0.55688737     0.11600
C392        C  0.58865556  0.66183402  0.59150628    -0.51900
C393        C  0.56087468  0.63373083  0.61979391     0.12200
H394        H  0.69084015  0.60514201  0.59895573     0.16700
H395        H  0.54695266  0.55696599  0.63580181     0.02400
H396        H  0.59448260  0.59848716  0.49202042     0.17000
H397        H  0.58918667  0.70067396  0.59476063     0.16800
C398        C  0.43059740  0.62670450  0.50483270     0.88600
C399        C  0.40129247  0.59621193  0.46992444    -0.51700
C400        C  0.42766601  0.56976188  0.43884646     0.11500
C401        C  0.48303127  0.57450846  0.44819451     0.22400
C402        C  0.46293431  0.59115136  0.53146361    -0.52400
C403        C  0.49216770  0.56228692  0.50348918     0.11600
C404        C  0.46478677  0.65577767  0.47390409    -0.51900
C405        C  0.49148784  0.62954773  0.44316327     0.12200
H406        H  0.36256880  0.59964831  0.46653222     0.16700
H407        H  0.50344635  0.55527437  0.42132807     0.02400
H408        H  0.46404154  0.59031939  0.57009169     0.17000
H409        H  0.46414871  0.69472724  0.47287737     0.16800
C410        C  0.53179280  0.53023831  0.53088644    -0.00400
C411        C  0.41090982  0.40141357  0.53676843    -0.11200
C412        C  0.38131344  0.37251044  0.52269424    -0.12800
C413        C  0.18417408  0.28066545  0.51744224    -0.14400
C414        C  0.21220789  0.32024543  0.51195682    -0.29500
H415        H  0.19968922  0.24510530  0.51796239     0.14700
H416        H  0.19720790  0.35605615  0.51286602     0.15200
C417        C  0.03472877  0.28265197  0.38426636    -0.14400
C418        C  0.03392556  0.24415071  0.35411236    -0.27500
H419        H  0.03397746  0.31871066  0.37009223     0.14700
H420        H  0.03519524  0.20785080  0.36772239     0.15200
C421        C  0.04296111  0.23490081  0.69808969    -0.14400
C422        C  0.04940396  0.27427472  0.67006721    -0.29500
H423        H  0.03945880  0.19934673  0.68263519     0.14700
H424        H  0.05380984  0.30937029  0.68637077     0.15200
C425        C  0.29287154  0.17240891  0.49810910    -0.14400
C426        C  0.33197211  0.20196478  0.50128346    -0.29500
H427        H  0.25797407  0.18666817  0.48874791     0.14700
H428        H  0.36703609  0.18805952  0.51067141     0.15200
C429        C  0.28324450  0.00113490  0.39350919    -0.14400
C430        C  0.24446052  0.00580485  0.36419803    -0.29500
H431        H  0.31824460  0.99308811  0.37863432     0.14700
H432        H  0.20909891  0.01337132  0.37844777     0.15200
C433        C  0.28636837  0.06666276  0.67226876    -0.14400
C434        C  0.24778221  0.06356650  0.70196005    -0.29500
H435        H  0.32179001  0.07429438  0.68663323     0.14700
H436        H  0.21214159  0.05597506  0.68807579     0.15200
C437        C  0.53750047  0.37397435  0.36994347    -0.11200
C438        C  0.54832666  0.40279302  0.40108870    -0.12800
C439        C  0.54225154  0.17215782  0.28365338    -0.14400
C440        C  0.53810522  0.20151094  0.32234269    -0.29500
H441        H  0.54386336  0.18736731  0.24817729     0.14700
H442        H  0.53792732  0.18728452  0.35823279     0.15200
C443        C  0.36374069  0.02454849  0.24393441    -0.14400
C444        C  0.39329042  0.03116661  0.28214911    -0.29500
H445        H  0.37793527  0.02223013  0.20805164     0.14700
H446        H  0.37826665  0.03443156  0.31763812     0.15200
C447        C  0.68123640  0.02442120  0.27943300    -0.14400
C448        C  0.71029998  0.02894299  0.24072336    -0.29500
H449        H  0.69686758  0.02211923  0.31478131     0.14700
H450        H  0.69566616  0.02983227  0.20490268     0.15200
C451        C  0.49927241  0.27895182  0.17540252    -0.14400
C452        C  0.50582628  0.31825811  0.20373093    -0.29500
H453        H  0.49294286  0.24403502  0.19114630     0.14700
H454        H  0.51173693  0.35345814  0.18849073     0.15200
C455        C  0.37938743  0.27430970  0.01038326    -0.14400
C456        C  0.34892236  0.23606864  0.01329493    -0.29500
H457        H  0.36566364  0.30982029  0.00322407     0.14700
H458        H  0.36220479  0.20047736  0.02116495     0.15200
C459        C  0.66299428  0.27112862  0.05828916    -0.14400
C460        C  0.69273566  0.23256450  0.05482630    -0.29500
H461        H  0.67757690  0.30645926  0.06579151     0.14700
H462        H  0.67868722  0.19698449  0.04729191     0.15200
C463        C  0.37671526  0.54676305  0.36036304    -0.11200
C464        C  0.40392454  0.55364046  0.39430257    -0.12800
C465        C  0.17253527  0.54181899  0.27494927    -0.14400
C466        C  0.20360703  0.54165334  0.31255279    -0.29500
H467        H  0.18641705  0.54278750  0.23890810     0.14700
H468        H  0.19051833  0.54160097  0.34891024     0.15200
C469        C  0.02825475  0.36466764  0.23365110    -0.14400
C470        C  0.02754059  0.39447426  0.27215680    -0.29500
H471        H  0.02944931  0.37864627  0.19768241     0.14700
H472        H  0.02633632  0.37980148  0.30780619     0.15200
C473        C  0.02752863  0.68133411  0.28029508    -0.14400
C474        C  0.03021313  0.71192295  0.24286252    -0.29500
H475        H  0.02636392  0.69522481  0.31641388     0.14700
H476        H  0.03066637  0.69872969  0.20646079     0.15200
C477        C  0.28284253  0.52351068  0.16101923    -0.14400
C478        C  0.32216348  0.52947454  0.18980054    -0.29500
H479        H  0.24758287  0.51922675  0.17679809     0.14700
H480        H  0.35780227  0.53352520  0.17477316     0.15200
C481        C  0.27102857  0.38698048  0.00611104    -0.14400
C482        C  0.23130430  0.35839880  0.00874373    -0.29500
H483        H  0.30628239  0.37149683  0.00124001     0.14700
H484        H  0.19588676  0.37349828  0.01411337     0.15200
C485        C  0.27657006  0.67282825  0.02614649    -0.14400
C486        C  0.23722024  0.70156569  0.02792370    -0.29500
H487        H  0.31243527  0.68816663  0.02717721     0.14700
H488        H  0.20117205  0.68678076  0.02560099     0.15200
C489        C  0.53729472  0.37082788  0.69655995    -0.11200
C490        C  0.52580038  0.40111830  0.66730564    -0.12800
C491        C  0.54444147  0.27691720  0.89369342    -0.14400
C492        C  0.54474836  0.31637834  0.86520184    -0.29500
H493        H  0.54920420  0.24145984  0.87854041     0.14700
H494        H  0.53901921  0.35193391  0.87985944     0.15200
C495        C  0.56346764  0.16875932  0.78047334    -0.14400
C496        C  0.55841811  0.19898385  0.74269363    -0.29500
H497        H  0.57104959  0.18315343  0.81563892     0.14700
H498        H  0.55097058  0.18520071  0.70724017     0.15200
C499        C  0.71299225  0.00761318  0.82275678    -0.14400
C500        C  0.68227824  0.00230041  0.78524420    -0.29500
H501        H  0.69980099  0.01630618  0.85806762     0.14700
H502        H  0.69606404  0.99356692  0.75019838     0.15200
C503        C  0.39810202  0.04924796  0.78370221    -0.14400
C504        C  0.36813778  0.05040785  0.82207135    -0.29500
H505        H  0.38373826  0.05359217  0.74807440     0.14700
H506        H  0.38179056  0.04518416  0.85787622     0.15200
C507        C  0.79108082  0.06026601  0.38883333    -0.14400
C508        C  0.82992021  0.05358831  0.35994057    -0.29500
H509        H  0.75600312  0.06694484  0.37340351     0.14700
H510        H  0.86526721  0.04709649  0.37482569     0.15200
C511        C  0.82993020  0.01603682  0.69968083    -0.14400
C512        C  0.79031307  0.01482614  0.67099713    -0.29500
H513        H  0.86542924  0.02226359  0.68502901     0.14700
H514        H  0.75490454  0.00957652  0.68613200     0.15200
C515        C  0.70211056  0.37978939  0.53569943    -0.11200
C516        C  0.67198766  0.40870327  0.52338386    -0.12800
C517        C  0.74972049  0.20933036  0.55542972    -0.14400
C518        C  0.78819211  0.17934398  0.55790172    -0.29500
H519        H  0.71390519  0.19560170  0.54819201     0.14700
H520        H  0.82382054  0.19341608  0.56528572     0.15200
C521        C  0.87189671  0.32649015  0.54129650    -0.14400
C522        C  0.89897495  0.28645154  0.53517049    -0.29500
H523        H  0.88792468  0.36201692  0.54170634     0.14700
H524        H  0.88221770  0.25133213  0.53308057     0.15200
C525        C  0.35511205  0.51474600  0.67190093    -0.11200
C526        C  0.38871029  0.50674755  0.64491359    -0.12800
C527        C  0.31156689  0.53258475  0.84403716    -0.14400
C528        C  0.27407058  0.53826492  0.87483729    -0.29500
H529        H  0.34798066  0.52806702  0.85700075     0.14700
H530        H  0.23801417  0.54337435  0.86115895     0.15200
C531        C  0.18515396  0.51623287  0.73082877    -0.14400
C532        C  0.15790883  0.51353334  0.77114586    -0.29500
H533        H  0.16868450  0.51870208  0.69588425     0.14700
H534        H  0.17491987  0.50992258  0.80571550     0.15200
C535        C  0.00439914  0.38162106  0.77902941    -0.14400
C536        C  0.00994250  0.35233338  0.81734761    -0.29500
H537        H  0.00076602  0.36631914  0.74358458     0.14700
H538        H  0.01234839  0.36675851  0.85322470     0.15200
C539        C  0.02526548  0.66855413  0.78548769    -0.14400
C540        C  0.02451091  0.69704070  0.82513358    -0.29500
H541        H  0.02732474  0.68448102  0.75040427     0.14700
H542        H  0.02324404  0.68170427  0.86054472     0.15200
C543        C  0.04385508  0.79215223  0.39465472    -0.14400
C544        C  0.03963685  0.83101957  0.36574639    -0.29500
H545        H  0.04916558  0.75683137  0.37932914     0.14700
H546        H  0.03452087  0.86666102  0.38042199     0.15200
C547        C  0.01663960  0.78476961  0.67881245    -0.14400
C548        C  0.02178978  0.82211818  0.70982213    -0.29500
H549        H  0.01025075  0.74884785  0.69202290     0.14700
H550        H  0.02822651  0.85826928  0.69718598     0.15200
C551        C  0.39919218  0.65953242  0.53266433    -0.11200
C552        C  0.37103244  0.69066351  0.54458766    -0.12800
C553        C  0.17312467  0.78472723  0.55126495    -0.14400
C554        C  0.20172415  0.74532260  0.55135418    -0.29500
H555        H  0.18855406  0.82032921  0.55477784     0.14700
H556        H  0.18675356  0.70956085  0.54723546     0.15200
C557        C  0.32567150  0.86298310  0.55973589    -0.14400
C558        C  0.28789815  0.89351061  0.56496172    -0.29500
H559        H  0.36116901  0.87624979  0.55065777     0.14700
H560        H  0.25266105  0.87975696  0.57424744     0.15200
C561        C  0.64584519  0.54929520  0.66254862    -0.11200
C562        C  0.67188401  0.53526175  0.69430495    -0.12800
C563        C  0.84301835  0.52923699  0.74200426    -0.14400
C564        C  0.87164271  0.53371142  0.78115745    -0.29500
H565        H  0.85783267  0.52908911  0.70629784     0.14700
H566        H  0.85601629  0.53542032  0.81651368     0.15200
C567        C  0.72569072  0.49822193  0.85908507    -0.14400
C568        C  0.76528099  0.49124616  0.88675295    -0.29500
H569        H  0.69134086  0.50742975  0.87474431     0.14700
H570        H  0.79936540  0.48163893  0.87072874     0.15200
C571        C  0.78005261  0.66428291  0.99652673    -0.14400
C572        C  0.81913422  0.69369620  0.00083056    -0.29500
H573        H  0.74503429  0.67918219  0.98872945     0.14700
H574        H  0.85439854  0.67932224  0.00864661     0.15200
C575        C  0.77450453  0.38354838  0.05495435    -0.14400
C576        C  0.81317606  0.35393939  0.05271996    -0.29500
H577        H  0.73902570  0.36932895  0.06243025     0.14700
H578        H  0.84880208  0.36780912  0.04509878     0.15200
C579        C  0.66960456  0.77671234  0.01161316    -0.14400
C580        C  0.70003930  0.81515578  0.01121240    -0.29500
H581        H  0.68345561  0.74071786  0.00727466     0.14700
H582        H  0.68675019  0.85129843  0.01630911     0.15200
C583        C  0.38509918  0.78498443  0.05491140    -0.14400
C584        C  0.35582309  0.82330926  0.04751824    -0.29500
H585        H  0.36973853  0.75029305  0.06355511     0.14700
H586        H  0.37047702  0.85841395  0.03932946     0.15200
C587        C  0.67852033  0.52794511  0.35931925    -0.11200
C588        C  0.64977426  0.51705125  0.39029778    -0.12800
C589        C  0.73652084  0.54773358  0.19341661    -0.14400
C590        C  0.77591449  0.55135869  0.16497767    -0.29500
H591        H  0.70107190  0.54159461  0.17838770     0.14700
H592        H  0.81128797  0.55732351  0.18020000     0.15200
C593        C  0.88382503  0.53414889  0.27923535    -0.14400
C594        C  0.85319951  0.53647845  0.31707786    -0.29500
H595        H  0.86947017  0.53193468  0.24336196     0.14700
H596        H  0.86655846  0.53745152  0.35338440     0.15200
C597        C  0.51202201  0.65435599  0.40196602    -0.11200
C598        C  0.52168030  0.68274113  0.37036220    -0.12800
C599        C  0.54841687  0.77565668  0.17409320    -0.14400
C600        C  0.54219185  0.73656043  0.20243960    -0.29500
H601        H  0.55597731  0.81058433  0.18956466     0.14700
H602        H  0.53495601  0.70140046  0.18731213     0.15200
C603        C  0.53070147  0.85537531  0.32353336    -0.14400
C604        C  0.52926917  0.88498455  0.28499062    -0.29500
H605        H  0.53202512  0.86958188  0.35953862     0.14700
H606        H  0.52661296  0.87004634  0.24935804     0.15200
C607        C  0.52817754  0.68275816  0.69448226    -0.11200
C608        C  0.53893913  0.65602442  0.66171252    -0.12800
C609        C  0.51907447  0.85439781  0.74310004    -0.14400
C610        C  0.51747901  0.88456634  0.78141442    -0.29500
H611        H  0.52583992  0.86789414  0.70755615     0.14700
H612        H  0.51139552  0.87052363  0.81681868     0.15200
C613        C  0.50887377  0.73562732  0.86345257    -0.14400
C614        C  0.50520771  0.77486003  0.89235915    -0.29500
H615        H  0.51539619  0.70030550  0.87803886     0.14700
H616        H  0.49880418  0.81000475  0.87742208     0.15200
C617        C  0.68638081  0.69868522  0.52353415    -0.11200
C618        C  0.65685614  0.66840488  0.53490175    -0.12800
C619        C  0.85829333  0.74696271  0.51807953    -0.14400
C620        C  0.88760709  0.78590985  0.52286867    -0.29500
H621        H  0.87236275  0.71080131  0.51931626     0.14700
H622        H  0.87280987  0.82177096  0.52310091     0.15200
C623        C  0.74091546  0.86854307  0.50623098    -0.14400
C624        C  0.78067117  0.89726149  0.50346516    -0.29500
H625        H  0.70577690  0.88348751  0.51348860     0.14700
H626        H  0.81556789  0.88191672  0.49606151     0.15200
C627        C  0.05114970  0.90021629  0.90714878    -0.11200
C628        C  0.04030227  0.86716786  0.88051259    -0.12800
C629        C  0.15714507  0.90374639  0.01385900    -0.11200
C630        C  0.18493592  0.87178396  0.02425587    -0.12800
C631        C  0.16501022  0.03423647  0.89984918    -0.11200
C632        C  0.19564812  0.04593001  0.87084256    -0.12800
C633        C  0.90203367  0.89440069  0.02991352    -0.11200
C634        C  0.87224699  0.86419224  0.01824773    -0.12800
C635        C  0.90889937  0.01225457  0.15908107    -0.11200
C636        C  0.88212728  0.02355556  0.19175035    -0.12800
C637        C  0.01493030  0.90857996  0.16251717    -0.11200
C638        C  0.02459646  0.88298451  0.19622729    -0.12800
C639        C  0.91134910  0.04184664  0.90091172    -0.11200
C640        C  0.88453462  0.02975930  0.86852465    -0.12800
C641        C  0.89620324  0.15609610  0.03141993    -0.11200
C642        C  0.86482988  0.18416749  0.04292435    -0.12800
C643        C  0.01839839  0.18114182  0.86663637    -0.11200
C644        C  0.01032601  0.15398378  0.89982785    -0.12800
C645        C  0.15095757  0.15837544  0.04754107    -0.11200
C646        C  0.17771329  0.19000507  0.03372509    -0.12800
C647        C  0.16150087  0.02987628  0.16490146    -0.11200
C648        C  0.19172050  0.01985568  0.19480873    -0.12800
C649        C  0.04662832  0.15995021  0.15646970    -0.11200
C650        C  0.03796523  0.19309217  0.18361182    -0.12800
loop_ 
_geom_bond_atom_site_label_1 
_geom_bond_atom_site_label_2 
_geom_bond_distance 
_geom_bond_site_symmetry_2 
_ccdc_geom_bond_type 
C1            C2   1.527       .  S
C1            C7   1.527       .  S
C1            C5   1.544       .  S
C1          C647   1.495       .  S
C2            H9   1.088       .  S
C2            C3   1.360       .  D
C3            C4   1.560       .  S
C3          C649   1.466       .  S
C4            C8   1.555       .  S
C4            C6   1.586       .  S
C4           H10   1.109       .  S
C5           H11   1.086   1_545  S
C5            C6   1.388       .  D
C6           C49   1.586       .  S
C7           H12   1.088       .  S
C7            C8   1.360       .  D
C8          C645   1.460       .  S
C13          C14   1.526   1_554  S
C13          C19   1.531   1_554  S
C13          C17   1.540       .  S
C13         C641   1.491       .  S
C14          H21   1.088       .  S
C14          C15   1.359       .  D
C15          C16   1.559       .  S
C15         C639   1.465       .  S
C16          C20   1.561       .  S
C16          C18   1.595   1_556  S
C16          H22   1.108   1_655  S
C17          H23   1.086       .  S
C17          C18   1.384       .  D
C18          C49   1.589   1_655  S
C19          H24   1.088       .  S
C19          C20   1.362       .  D
C20         C644   1.472   1_655  S
C25          C26   1.530       .  S
C25          C31   1.530       .  S
C25          C29   1.545       .  S
C25         C633   1.496       .  S
C26          H33   1.088       .  S
C26          C27   1.361       .  D
C27          C28   1.561       .  S
C27         C635   1.472   1_565  S
C28          C32   1.554       .  S
C28          C30   1.593       .  S
C28          H34   1.108   1_665  S
C29          H35   1.086   1_554  S
C29          C30   1.385       .  D
C30          C49   1.590   1_665  S
C31          H36   1.088       .  S
C31          C32   1.361       .  D
C32         C637   1.463   1_655  S
C37          C38   1.531   1_545  S
C37          C43   1.525   1_545  S
C37          C41   1.547       .  S
C37         C631   1.500       .  S
C38          H45   1.087       .  S
C38          C39   1.362       .  D
C39          C40   1.557       .  S
C39         C627   1.466       .  S
C40          C44   1.561       .  S
C40          C42   1.588   1_565  S
C40          H46   1.109   1_556  S
C41          H47   1.086       .  S
C41          C42   1.389       .  D
C42          C49   1.591   1_556  S
C43          H48   1.088       .  S
C43          C44   1.359       .  D
C44         C629   1.464   1_556  S
C50          N51   1.374       .  A
C50          N55   1.377       .  A
C50         C617   1.460       .  S
N51          C52   1.363       .  A
C52          N53   1.336       .  A
C52         C619   1.486       .  S
N53          C54   1.335       .  A
C54          N55   1.367       .  A
C54         C623   1.491       .  S
C56          N57   1.376       .  A
C56          N61   1.376       .  A
C56         C607   1.463       .  S
N57          C58   1.365       .  A
C58          N59   1.336       .  A
C58         C609   1.491       .  S
N59          C60   1.337       .  A
C60          N61   1.367       .  A
C60         C613   1.488       .  S
C62          N63   1.378       .  A
C62          N67   1.375       .  A
C62         C598   1.464       .  S
N63          C64   1.367       .  A
C64          N65   1.335       .  A
C64         C603   1.492       .  S
N65          C66   1.335       .  A
C66          N67   1.366       .  A
C66         C600   1.485       .  S
C68          N69   1.380       .  A
C68          N73   1.372       .  A
C68         C587   1.464       .  S
N69          C70   1.369       .  A
C70          N71   1.338       .  A
C70         C594   1.497       .  S
N71          C72   1.336       .  A
C72          N73   1.364       .  A
C72         C589   1.482       .  S
O74         Ni82   1.930       .  S
O74          C84   1.289       .  A
O75         Ni82   1.929       .  S
O75          C85   1.288       .  A
O76         Ni82   1.894       .  S
O76          C86   1.271       .  A
O77         Ni82   1.898   1_556  S
O77          C87   1.271       .  A
O78         Ni83   1.930   1_556  S
O78          C87   1.289       .  A
O79         Ni83   1.931       .  S
O79          C86   1.289       .  A
O80         Ni83   1.905       .  S
O80          C85   1.273       .  A
O81         Ni83   1.906       .  S
O81          C84   1.273       .  A
Ni82        Ni83   2.393       .  S
C84         C583   1.470       .  S
C85         C579   1.470       .  S
C86         C599   1.465       .  S
C87         C614   1.466       .  S
O88         Ni96   1.932   1_556  S
O88          C98   1.289       .  A
O89         Ni96   1.931       .  S
O89          C99   1.288       .  A
O90         Ni96   1.898       .  S
O90         C100   1.272       .  A
O91         Ni96   1.905       .  S
O91         C101   1.273       .  A
O92         Ni97   1.931       .  S
O92         C101   1.289       .  A
O93         Ni97   1.928       .  S
O93         C100   1.288       .  A
O94         Ni97   1.890       .  S
O94          C99   1.271       .  A
O95         Ni97   1.891   1_556  S
O95          C98   1.270       .  A
Ni96        Ni97   2.394       .  S
C98         C568   1.464       .  S
C99         C590   1.464       .  S
C100        C575   1.465       .  S
C101        C571   1.471   1_554  S
C102        N103   1.377       .  A
C102        N107   1.375       .  A
C102        C634   1.465       .  S
N103        C104   1.368       .  A
C104        N105   1.338       .  A
C104        C572   1.492       .  S
N105        C106   1.337       .  A
C106        N107   1.366       .  A
C106        C580   1.490       .  S
C108        N109   1.373       .  A
C108        N113   1.374       .  A
C108        C562   1.454       .  S
N109        C110   1.361       .  A
C110        N111   1.334       .  A
C110        C563   1.480       .  S
N111        C112   1.336       .  A
C112        N113   1.366       .  A
C112        C567   1.483       .  S
C114        N115   1.373       .  A
C114        N119   1.377       .  A
C114        C552   1.460       .  S
N115        C116   1.363       .  A
C116        N117   1.337       .  A
C116        C554   1.485       .  S
N117        C118   1.336       .  A
C118        N119   1.367       .  A
C118        C557   1.490       .  S
O120       Ni128   1.925       .  S
O120        C130   1.287       .  A
O121       Ni128   1.924       .  S
O121        C131   1.287       .  A
O122       Ni128   1.901   1_655  S
O122        C132   1.273       .  A
O123       Ni128   1.901       .  S
O123        C133   1.273       .  A
O124       Ni129   1.921       .  S
O124        C133   1.286       .  A
O125       Ni129   1.921   1_655  S
O125        C132   1.287       .  A
O126       Ni129   1.909       .  S
O126        C131   1.274       .  A
O127       Ni129   1.911       .  S
O127        C130   1.275       .  A
Ni128      Ni129   2.394       .  S
C130        C543   1.471       .  S
C131        C547   1.468       .  S
C132        C620   1.462       .  S
C133        C553   1.463       .  S
O134       Ni142   1.933       .  S
O134        C144   1.290       .  A
O135       Ni142   1.930   1_655  S
O135        C145   1.288       .  A
O136       Ni142   1.904       .  S
O136        C146   1.273       .  A
O137       Ni142   1.905       .  S
O137        C147   1.273       .  A
O138       Ni143   1.931       .  S
O138        C147   1.289       .  A
O139       Ni143   1.932       .  S
O139        C146   1.288       .  A
O140       Ni143   1.892   1_655  S
O140        C145   1.271       .  A
O141       Ni143   1.898       .  S
O141        C144   1.271       .  A
Ni142      Ni143   2.393       .  S
C144        C532   1.469       .  S
C145        C564   1.463       .  S
C146        C535   1.471       .  S
C147        C539   1.471       .  S
C148        N149   1.377       .  A
C148        N153   1.375       .  A
C148        C628   1.463       .  S
N149        C150   1.368       .  A
C150        N151   1.338       .  A
C150        C540   1.492       .  S
N151        C152   1.337       .  A
C152        N153   1.364       .  A
C152        C548   1.490       .  S
C154        N155   1.379       .  A
C154        N159   1.378       .  A
C154        C525   1.471       .  S
N155        C156   1.368       .  A
C156        N157   1.335       .  A
C156        C527   1.494       .  S
N157        C158   1.336       .  A
C158        N159   1.369       .  A
C158        C531   1.490       .  S
C160        N161   1.374       .  A
C160        N165   1.376       .  A
C160        C515   1.457       .  S
N161        C162   1.363       .  A
C162        N163   1.336       .  A
C162        C521   1.483       .  S
N163        C164   1.335       .  A
C164        N165   1.365       .  A
C164        C517   1.488       .  S
O166       Ni174   1.936       .  S
O166        C176   1.290       .  A
O167       Ni174   1.934       .  S
O167        C177   1.289       .  A
O168       Ni174   1.899       .  S
O168        C178   1.272       .  A
O169       Ni174   1.901   1_565  S
O169        C179   1.272       .  A
O170       Ni175   1.932   1_565  S
O170        C179   1.289       .  A
O171       Ni175   1.931       .  S
O171        C178   1.289       .  A
O172       Ni175   1.902       .  S
O172        C177   1.272       .  A
O173       Ni175   1.904       .  S
O173        C176   1.273       .  A
Ni174      Ni175   2.393       .  S
C176        C507   1.475       .  S
C177        C512   1.470       .  S
C178        C518   1.467       .  S
C179        C624   1.469       .  S
O180       Ni188   1.929       .  S
O180        C190   1.288       .  A
O181       Ni188   1.927   1_565  S
O181        C191   1.288       .  A
O182       Ni188   1.909       .  S
O182        C192   1.274       .  A
O183       Ni188   1.911       .  S
O183        C193   1.274       .  A
O184       Ni189   1.928       .  S
O184        C193   1.288       .  A
O185       Ni189   1.927       .  S
O185        C192   1.287       .  A
O186       Ni189   1.906   1_565  S
O186        C191   1.273       .  A
O187       Ni189   1.910       .  S
O187        C190   1.274       .  A
Ni188      Ni189   2.392       .  S
C190        C495   1.473       .  S
C191        C610   1.468       .  S
C192        C500   1.470       .  S
C193        C503   1.473       .  S
C194        N195   1.376       .  A
C194        N199   1.375       .  A
C194        C640   1.463       .  S
N195        C196   1.366       .  A
C196        N197   1.338       .  A
C196        C499   1.491       .  S
N197        C198   1.338       .  A
C198        N199   1.367       .  A
C198        C511   1.490       .  S
C200        N201   1.379       .  A
C200        N205   1.375       .  A
C200        C489   1.468       .  S
N201        C202   1.369       .  A
C202        N203   1.337       .  A
C202        C496   1.495       .  S
N203        C204   1.337       .  A
C204        N205   1.366       .  A
C204        C492   1.489       .  S
O206       Ni214   1.935       .  S
O206        C216   1.290       .  A
O207       Ni214   1.932   1_556  S
O207        C217   1.289       .  A
O208       Ni214   1.900       .  S
O208        C218   1.272       .  A
O209       Ni214   1.897       .  S
O209        C219   1.272       .  A
O210       Ni215   1.925       .  S
O210        C219   1.287       .  A
O211       Ni215   1.926       .  S
O211        C218   1.288       .  A
O212       Ni215   1.910   1_556  S
O212        C217   1.274       .  A
O213       Ni215   1.915       .  S
O213        C216   1.275       .  A
Ni214      Ni215   2.393       .  S
C216        C477   1.480       .  S
C217        C528   1.473       .  S
C218        C481   1.465       .  S
C219        C485   1.464       .  S
C220        N221   1.374       .  A
C220        N225   1.378       .  A
C220        C630   1.461       .  S
N221        C222   1.364       .  A
C222        N223   1.336       .  A
C222        C486   1.485       .  S
N223        C224   1.336       .  A
C224        N225   1.367       .  A
C224        C584   1.491       .  S
O226       Ni234   1.918       .  S
O226        C236   1.286       .  A
O227       Ni234   1.918       .  S
O227        C237   1.285       .  A
O228       Ni234   1.918   1_655  S
O228        C238   1.276       .  A
O229       Ni234   1.919       .  S
O229        C239   1.277       .  A
O230       Ni235   1.925       .  S
O230        C239   1.287       .  A
O231       Ni235   1.924   1_655  S
O231        C238   1.287       .  A
O232       Ni235   1.911       .  S
O232        C237   1.276       .  A
O233       Ni235   1.912       .  S
O233        C236   1.275       .  A
Ni234      Ni235   2.392       .  S
C236        C470   1.466       .  S
C237        C473   1.467       .  S
C238        C593   1.473       .  S
C239        C465   1.475       .  S
C240        N241   1.373       .  A
C240        N245   1.376       .  A
C240        C638   1.459       .  S
N241        C242   1.362       .  A
C242        N243   1.339       .  A
C242        C474   1.487       .  S
N243        C244   1.340       .  A
C244        N245   1.368       .  A
C244        C544   1.492       .  S
C246        N247   1.381       .  A
C246        N251   1.377       .  A
C246        C463   1.478       .  S
N247        C248   1.373       .  A
C248        N249   1.339       .  A
C248        C478   1.500       .  S
N249        C250   1.339       .  A
C250        N251   1.367       .  A
C250        C466   1.495       .  S
O252       Ni260   1.932       .  S
O252        C262   1.289       .  A
O253       Ni260   1.931   1_556  S
O253        C263   1.289       .  A
O254       Ni260   1.906       .  S
O254        C264   1.273       .  A
O255       Ni260   1.902       .  S
O255        C265   1.273       .  A
O256       Ni261   1.926       .  S
O256        C265   1.287       .  A
O257       Ni261   1.927       .  S
O257        C264   1.288       .  A
O258       Ni261   1.900   1_556  S
O258        C263   1.272       .  A
O259       Ni261   1.899       .  S
O259        C262   1.272       .  A
Ni260      Ni261   2.393       .  S
C262        C451   1.469       .  S
C263        C491   1.468       .  S
C264        C459   1.468       .  S
C265        C455   1.466       .  S
C266        N267   1.377       .  A
C266        N271   1.373       .  A
C266        C642   1.460       .  S
N267        C268   1.367       .  A
C268        N269   1.337       .  A
C268        C460   1.492       .  S
N269        C270   1.336       .  A
C270        N271   1.363       .  A
C270        C576   1.485       .  S
O272       Ni280   1.927       .  S
O272        C282   1.287       .  A
O273       Ni280   1.927       .  S
O273        C283   1.287       .  A
O274       Ni280   1.907       .  S
O274        C284   1.274       .  A
O275       Ni280   1.907   1_565  S
O275        C285   1.273       .  A
O276       Ni281   1.926   1_565  S
O276        C285   1.288       .  A
O277       Ni281   1.928       .  S
O277        C284   1.288       .  A
O278       Ni281   1.909       .  S
O278        C283   1.274       .  A
O279       Ni281   1.908       .  S
O279        C282   1.274       .  A
Ni280      Ni281   2.393       .  S
C282        C444   1.470       .  S
C283        C447   1.470       .  S
C284        C439   1.470       .  S
C285        C604   1.469       .  S
C286        N287   1.378       .  A
C286        N291   1.376       .  A
C286        C636   1.469       .  S
N287        C288   1.370       .  A
C288        N289   1.338       .  A
C288        C508   1.493       .  S
N289        C290   1.338       .  A
C290        N291   1.365       .  A
C290        C448   1.489       .  S
C292        N293   1.375       .  A
C292        N297   1.376       .  A
C292        C437   1.464       .  S
N293        C294   1.367       .  A
C294        N295   1.337       .  A
C294        C452   1.487       .  S
N295        C296   1.337       .  A
C296        N297   1.366       .  A
C296        C440   1.489       .  S
O298       Ni306   1.933       .  S
O298        C308   1.289       .  A
O299       Ni306   1.932       .  S
O299        C309   1.289       .  A
O300       Ni306   1.901       .  S
O300        C310   1.272       .  A
O301       Ni306   1.901   1_565  S
O301        C311   1.272       .  A
O302       Ni307   1.931   1_565  S
O302        C311   1.289       .  A
O303       Ni307   1.931       .  S
O303        C310   1.289       .  A
O304       Ni307   1.904       .  S
O304        C309   1.273       .  A
O305       Ni307   1.906       .  S
O305        C308   1.273       .  A
Ni306      Ni307   2.393       .  S
C308        C433   1.473       .  S
C309        C429   1.472       .  S
C310        C425   1.468       .  S
C311        C558   1.469       .  S
C312        N313   1.377       .  A
C312        N317   1.376       .  A
C312        C632   1.469       .  S
N313        C314   1.368       .  A
C314        N315   1.339       .  A
C314        C504   1.494       .  S
N315        C316   1.339       .  A
C316        N317   1.367       .  A
C316        C434   1.491       .  S
O318       Ni326   1.932       .  S
O318        C328   1.289       .  A
O319       Ni326   1.932       .  S
O319        C329   1.289       .  A
O320       Ni326   1.893   1_655  S
O320        C330   1.271       .  A
O321       Ni326   1.888       .  S
O321        C331   1.270       .  A
O322       Ni327   1.920       .  S
O322        C331   1.286       .  A
O323       Ni327   1.922   1_655  S
O323        C330   1.287       .  A
O324       Ni327   1.909       .  S
O324        C329   1.274       .  A
O325       Ni327   1.910       .  S
O325        C328   1.274       .  A
Ni326      Ni327   2.394       .  S
C328        C422   1.474       .  S
C329        C417   1.474       .  S
C330        C522   1.459       .  S
C331        C413   1.454       .  S
C332        N333   1.376       .  A
C332        N337   1.378       .  A
C332        C643   1.469       .  S
N333        C334   1.365       .  A
C334        N335   1.337       .  A
C334        C536   1.488       .  S
N335        C336   1.338       .  A
C336        N337   1.370       .  A
C336        C421   1.493       .  S
C338        N339   1.377       .  A
C338        N343   1.370       .  A
C338        C412   1.452       .  S
N339        C340   1.367       .  A
C340        N341   1.335       .  A
C340        C426   1.490       .  S
N341        C342   1.336       .  A
C342        N343   1.360       .  A
C342        C414   1.476       .  S
C344        N345   1.377       .  A
C344        N349   1.375       .  A
C344        C650   1.463       .  S
N345        C346   1.366       .  A
C346        N347   1.337       .  A
C346        C418   1.493       .  S
N347        C348   1.340       .  A
C348        N349   1.366       .  A
C348        C469   1.491       .  S
C350        N351   1.375       .  A
C350        N355   1.376       .  A
C350        C648   1.464       .  S
N351        C352   1.366       .  A
C352        N353   1.338       .  A
C352        C443   1.489       .  S
N353        C354   1.338       .  A
C354        N355   1.367       .  A
C354        C430   1.490       .  S
C356        N357   1.375       .  A
C356        N361   1.374       .  A
C356        C646   1.457       .  S
N357        C358   1.364       .  A
C358        N359   1.337       .  A
C358        C456   1.488       .  S
N359        C360   1.337       .  A
C360        N361   1.365       .  A
C360        C482   1.487       .  S
C362        C363   1.523       .  S
C362        C368   1.519       .  S
C362        C366   1.540       .  S
C362        C490   1.501       .  S
C363        H370   1.088       .  S
C363        C364   1.357       .  D
C364        C365   1.554       .  S
C364        C411   1.455       .  S
C365        C369   1.577       .  S
C365        C367   1.595       .  S
C365        H371   1.109       .  S
C366        H372   1.073       .  S
C366        C367   1.399       .  D
C367        C410   1.626       .  S
C368        H373   1.088       .  S
C368        C369   1.359       .  D
C369        C526   1.472       .  S
C374        C375   1.513       .  S
C374        C380   1.526       .  S
C374        C378   1.532       .  S
C374        C516   1.488       .  S
C375        H382   1.088       .  S
C375        C376   1.356       .  D
C376        C377   1.577       .  S
C376        C588   1.465       .  S
C377        C381   1.558       .  S
C377        C379   1.606       .  S
C377        H383   1.088       .  S
C378        H384   1.073       .  S
C378        C379   1.394       .  D
C379        C410   1.630       .  S
C380        H385   1.088       .  S
C380        C381   1.357       .  D
C381        C438   1.468       .  S
C386        C387   1.530       .  S
C386        C392   1.526       .  S
C386        C390   1.541       .  S
C386        C618   1.492       .  S
C387        H394   1.087       .  S
C387        C388   1.361       .  D
C388        C389   1.551       .  S
C388        C561   1.457       .  S
C389        C393   1.559       .  S
C389        C391   1.586       .  S
C389        H395   1.107       .  S
C390        H396   1.086       .  S
C390        C391   1.385       .  D
C391        C410   1.585       .  S
C392        H397   1.088       .  S
C392        C393   1.360       .  D
C393        C608   1.466       .  S
C398        C399   1.528       .  S
C398        C404   1.524       .  S
C398        C402   1.539       .  S
C398        C551   1.491       .  S
C399        H406   1.088       .  S
C399        C400   1.360       .  D
C400        C401   1.569       .  S
C400        C464   1.481       .  S
C401        C405   1.560       .  S
C401        C403   1.612       .  S
C401        H407   1.088       .  S
C402        H408   1.086       .  S
C402        C403   1.391       .  D
C403        C410   1.620       .  S
C404        H409   1.088       .  S
C404        C405   1.356       .  D
C405        C597   1.467       .  S
C411        C412   1.215       .  T
C413        H415   1.085       .  S
C413        C414   1.359       .  D
C414        H416   1.086       .  S
C417        H419   1.085       .  S
C417        C418   1.366       .  D
C418        H420   1.086       .  S
C421        H423   1.085       .  S
C421        C422   1.366       .  D
C422        H424   1.086       .  S
C425        H427   1.085       .  S
C425        C426   1.366       .  D
C426        H428   1.086       .  S
C429        H431   1.086   1_545  S
C429        C430   1.364       .  D
C430        H432   1.086       .  S
C433        H435   1.085       .  S
C433        C434   1.365       .  D
C434        H436   1.086       .  S
C437        C438   1.222       .  T
C439        H441   1.086       .  S
C439        C440   1.364       .  D
C440        H442   1.085       .  S
C443        H445   1.086       .  S
C443        C444   1.363       .  D
C444        H446   1.086       .  S
C447        H449   1.086       .  S
C447        C448   1.363       .  D
C448        H450   1.086       .  S
C451        H453   1.086       .  S
C451        C452   1.364       .  D
C452        H454   1.086       .  S
C455        H457   1.084       .  S
C455        C456   1.363       .  D
C456        H458   1.086       .  S
C459        H461   1.084       .  S
C459        C460   1.365       .  D
C460        H462   1.086       .  S
C463        C464   1.231       .  T
C465        H467   1.085       .  S
C465        C466   1.365       .  D
C466        H468   1.085       .  S
C469        H471   1.086       .  S
C469        C470   1.362       .  D
C470        H472   1.084       .  S
C473        H475   1.085       .  S
C473        C474   1.360       .  D
C474        H476   1.086       .  S
C477        H479   1.085       .  S
C477        C478   1.369       .  D
C478        H480   1.085       .  S
C481        H483   1.084       .  S
C481        C482   1.363       .  D
C482        H484   1.086       .  S
C485        H487   1.085       .  S
C485        C486   1.363       .  D
C486        H488   1.086       .  S
C489        C490   1.225       .  T
C491        H493   1.085       .  S
C491        C492   1.365       .  D
C492        H494   1.086       .  S
C495        H497   1.085       .  S
C495        C496   1.366       .  D
C496        H498   1.085       .  S
C499        H501   1.086       .  S
C499        C500   1.363       .  D
C500        H502   1.085   1_545  S
C503        H505   1.085       .  S
C503        C504   1.365       .  D
C504        H506   1.085       .  S
C507        H509   1.086       .  S
C507        C508   1.367       .  D
C508        H510   1.086       .  S
C511        H513   1.086       .  S
C511        C512   1.366       .  D
C512        H514   1.085       .  S
C515        C516   1.218       .  T
C517        H519   1.086       .  S
C517        C518   1.365       .  D
C518        H520   1.085       .  S
C521        H523   1.086       .  S
C521        C522   1.362       .  D
C522        H524   1.085       .  S
C525        C526   1.227       .  T
C527        H529   1.085       .  S
C527        C528   1.367       .  D
C528        H530   1.085       .  S
C531        H533   1.086       .  S
C531        C532   1.367       .  D
C532        H534   1.085       .  S
C535        H537   1.086       .  S
C535        C536   1.364       .  D
C536        H538   1.086       .  S
C539        H541   1.085       .  S
C539        C540   1.366       .  D
C540        H542   1.086       .  S
C543        H545   1.085       .  S
C543        C544   1.364       .  D
C544        H546   1.086       .  S
C547        H549   1.085       .  S
C547        C548   1.363       .  D
C548        H550   1.086       .  S
C551        C552   1.220       .  T
C553        H555   1.085       .  S
C553        C554   1.362       .  D
C554        H556   1.086       .  S
C557        H559   1.086       .  S
C557        C558   1.365       .  D
C558        H560   1.085       .  S
C561        C562   1.216       .  T
C563        H565   1.086       .  S
C563        C564   1.362       .  D
C564        H566   1.086       .  S
C567        H569   1.086       .  S
C567        C568   1.363       .  D
C568        H570   1.086       .  S
C571        H573   1.085       .  S
C571        C572   1.365   1_556  D
C572        H574   1.086       .  S
C575        H577   1.085       .  S
C575        C576   1.363       .  D
C576        H578   1.086       .  S
C579        H581   1.085       .  S
C579        C580   1.364       .  D
C580        H582   1.086       .  S
C583        H585   1.086       .  S
C583        C584   1.365       .  D
C584        H586   1.086       .  S
C587        C588   1.222       .  T
C589        H591   1.086       .  S
C589        C590   1.363       .  D
C590        H592   1.085       .  S
C593        H595   1.085       .  S
C593        C594   1.366       .  D
C594        H596   1.085       .  S
C597        C598   1.222       .  T
C599        H601   1.085       .  S
C599        C600   1.365       .  D
C600        H602   1.086       .  S
C603        H605   1.085       .  S
C603        C604   1.366       .  D
C604        H606   1.085       .  S
C607        C608   1.221       .  T
C609        H611   1.086       .  S
C609        C610   1.365       .  D
C610        H612   1.084       .  S
C613        H615   1.086       .  S
C613        C614   1.365       .  D
C614        H616   1.084       .  S
C617        C618   1.221       .  T
C619        H621   1.086       .  S
C619        C620   1.363       .  D
C620        H622   1.085       .  S
C623        H625   1.086       .  S
C623        C624   1.367       .  D
C624        H626   1.085       .  S
C627        C628   1.222       .  T
C629        C630   1.221       .  T
C631        C632   1.226       .  T
C633        C634   1.223       .  T
C635        C636   1.225       .  T
C637        C638   1.220       .  T
C639        C640   1.221       .  T
C641        C642   1.220       .  T
C643        C644   1.225       .  T
C645        C646   1.218       .  T
C647        C648   1.223       .  T
C649        C650   1.222       .  T
