geometry optimzed in LAMMPS
_audit_creation_date              2020-11-30 
_audit_creation_method            'lammps2cif' 
_symmetry_space_group_name_H-M    'P1' 
_symmetry_Int_Tables_number       1 
_symmetry_cell_setting            triclinic 
loop_ 
_symmetry_equiv_pos_as_xyz 
  x,y,z 
_cell_length_a                    107.0960296 
_cell_length_b                    107.07354607814254 
_cell_length_c                    107.0421969401788 
_cell_angle_alpha                 89.93160941385374 
_cell_angle_beta                  89.99822281281993 
_cell_angle_gamma                 90.04245770282 
loop_ 
_atom_site_label 
_atom_site_type_symbol 
_atom_site_fract_x 
_atom_site_fract_y 
_atom_site_fract_z 
_atom_site_charge 
N1          N  0.41982268  0.43052921  0.62289120    -0.25700
N2          N  0.42826651  0.42151217  0.62265228    -0.33500
C3          C  0.42470013  0.41233395  0.63050144     0.02700
C4          C  0.41350331  0.41575713  0.63590736     0.08700
C5          C  0.41066022  0.42731411  0.63090460    -0.04400
H6          H  0.42984783  0.40378701  0.63208742     0.09300
H7          H  0.40250910  0.43294119  0.63287110     0.10500
Cu8        Cu  0.44422690  0.42207229  0.61158313     0.44200
Cu9        Cu  0.42110220  0.44674621  0.61216203     0.42000
Cu10       Cu  0.44883599  0.45009488  0.59297155     0.43900
N11         N  0.45958417  0.42498838  0.60004340    -0.33100
N12         N  0.46131288  0.43525505  0.59336182    -0.27300
C13         C  0.47210925  0.43425254  0.58700265    -0.03400
C14         C  0.47736364  0.42282992  0.58982625     0.08800
C15         C  0.46923414  0.41717498  0.59809304     0.02600
H16         H  0.47581391  0.44129935  0.58076960     0.10200
H17         H  0.47023989  0.40807575  0.60238256     0.09300
N18         N  0.43462776  0.46328053  0.59363034    -0.34500
N19         N  0.42447862  0.46205413  0.60058311    -0.26700
C20         C  0.41708397  0.47206808  0.59877153    -0.01900
C21         C  0.42287998  0.47991033  0.59030525     0.06700
C22         C  0.43395851  0.47409205  0.58722250     0.04800
H23         H  0.40814595  0.47349805  0.60325685     0.09900
H24         H  0.44098868  0.47741929  0.58076748     0.08700
N25         N  0.39938078  0.53094153  0.57484945    -0.25700
N26         N  0.40624599  0.52954472  0.56466267    -0.33500
C27         C  0.41268619  0.51877444  0.56552823     0.02700
C28         C  0.40970913  0.51316998  0.57677009     0.08700
C29         C  0.40127248  0.52108889  0.58245416    -0.04400
H30         H  0.41906418  0.51531223  0.55850461     0.09300
H31         H  0.39685141  0.51981543  0.59145480     0.10500
Cu32       Cu  0.40667563  0.54243771  0.55010228     0.44200
Cu33       Cu  0.38787614  0.54629477  0.57806336     0.42000
Cu34       Cu  0.38766070  0.57022585  0.55411315     0.43900
N35         N  0.40598159  0.55699284  0.53721969    -0.33100
N36         N  0.39906370  0.56712251  0.53870677    -0.27300
C37         C  0.40094900  0.57485022  0.52895523    -0.03400
C38         C  0.40943067  0.56930367  0.52100157     0.08800
C39         C  0.41244475  0.55801390  0.52647105     0.02600
H40         H  0.39656702  0.58388417  0.52782606     0.10200
H41         H  0.41894699  0.55111764  0.52299256     0.09300
N42         N  0.37752327  0.57148793  0.57063457    -0.34500
N43         N  0.37759370  0.56275969  0.57940016    -0.26700
C44         C  0.37029999  0.56649284  0.58894902    -0.01900
C45         C  0.36545388  0.57809131  0.58601896     0.06700
C46         C  0.37019080  0.58099144  0.57437079     0.04800
H47         H  0.36871458  0.56118676  0.59740955     0.09900
H48         H  0.36850735  0.58940785  0.56902882     0.08700
N49         N  0.56918822  0.37810524  0.57072094    -0.25700
N50         N  0.56043509  0.37814352  0.57945237    -0.33500
C51         C  0.56400648  0.37065130  0.58891189     0.02700
C52         C  0.57553158  0.36568313  0.58598726     0.08700
C53         C  0.57856682  0.37056826  0.57441652    -0.04400
H54         H  0.55858975  0.36893759  0.59727242     0.09300
H55         H  0.58694250  0.36876964  0.56906349     0.10500
Cu56       Cu  0.54396636  0.38832021  0.57813167     0.44200
Cu57       Cu  0.56790275  0.38831158  0.55414500     0.42000
Cu58       Cu  0.53918080  0.40570588  0.54947631     0.43900
N59         N  0.52826916  0.39917441  0.57463158    -0.33100
N60         N  0.52648293  0.40544275  0.56412168    -0.27300
C61         C  0.51554572  0.41158891  0.56482185    -0.03400
C62         C  0.51025243  0.40903872  0.57630021     0.08800
C63         C  0.51851263  0.40116997  0.58230294     0.02600
H64         H  0.51180292  0.41753972  0.55755999     0.10200
H65         H  0.51755791  0.39723861  0.59157013     0.09300
N66         N  0.55377755  0.40552266  0.53672329    -0.34500
N67         N  0.56431139  0.39928919  0.53842724    -0.26700
C68         C  0.57189955  0.40139214  0.52860172    -0.01900
C69         C  0.56581551  0.40929322  0.52039797     0.06700
C70         C  0.55437679  0.41173246  0.52579684     0.04800
H71         H  0.58115719  0.39749465  0.52754619     0.09900
H72         H  0.54705665  0.41764343  0.52211914     0.08700
N73         N  0.58158315  0.43483866  0.47040995    -0.25700
N74         N  0.58835445  0.42461273  0.46890107    -0.33500
C75         C  0.58669597  0.41708146  0.47884870     0.02700
C76         C  0.57852369  0.42285624  0.48696637     0.08700
C77         C  0.57544568  0.43407485  0.48137342    -0.04400
H78         H  0.59114635  0.40809555  0.48007992     0.09300
H79         H  0.56922502  0.44115988  0.48498574     0.10500
Cu80       Cu  0.59975470  0.42139818  0.45350334     0.44200
Cu81       Cu  0.58101011  0.44937877  0.45747173     0.42000
Cu82       Cu  0.60044645  0.44569129  0.42991572     0.43900
N83         N  0.61097549  0.42065032  0.43765316    -0.33100
N84         N  0.61125196  0.42953265  0.42904711    -0.27300
C85         C  0.61957002  0.42636160  0.42015854    -0.03400
C86         C  0.62474226  0.41497898  0.42335283     0.08800
C87         C  0.61910804  0.41160293  0.43446603     0.02600
H88         H  0.62172069  0.43195854  0.41201617     0.10200
H89         H  0.62082315  0.40323639  0.43987589     0.09300
N90         N  0.58902232  0.46112530  0.43304241    -0.34500
N91         N  0.58195430  0.46248155  0.44309590    -0.26700
C92         C  0.57576753  0.47340641  0.44228235    -0.01900
C93         C  0.57912203  0.47915622  0.43121630     0.06700
C94         C  0.58751431  0.47115402  0.42557956     0.04800
H95         H  0.56930637  0.47687886  0.44922400     0.09900
H96         H  0.59217864  0.47249947  0.41671263     0.08700
N97         N  0.56451100  0.53057902  0.40771653    -0.25700
N98         N  0.55430007  0.52912133  0.41453719    -0.33500
C99         C  0.55506613  0.51825703  0.42084386     0.02700
C100        C  0.56627396  0.51264144  0.41785486     0.08700
C101        C  0.57204618  0.52066088  0.40952821    -0.04400
H102        H  0.54800902  0.51475455  0.42717482     0.09300
H103        H  0.58105854  0.51941311  0.40513731     0.10500
Cu104      Cu  0.53985590  0.54207840  0.41524345     0.44200
Cu105      Cu  0.56775357  0.54610321  0.39634921     0.42000
Cu106      Cu  0.54406212  0.57036183  0.39717396     0.43900
N107        N  0.52702534  0.55665236  0.41498684    -0.33100
N108        N  0.52861563  0.56702358  0.40844012    -0.27300
C109        C  0.51871733  0.57455690  0.41023140    -0.03400
C110        C  0.51054834  0.56861917  0.41825678     0.08800
C111        C  0.51606195  0.55731337  0.42111627     0.02600
H112        H  0.51753524  0.58363325  0.40593877     0.10200
H113        H  0.51237766  0.55008295  0.42714623     0.09300
N114        N  0.56014229  0.57143980  0.38636707    -0.34500
N115        N  0.56878271  0.56261218  0.38600322    -0.26700
C116        C  0.57791789  0.56620452  0.37811447    -0.01900
C117        C  0.57483660  0.57780352  0.37334487     0.06700
C118        C  0.56354404  0.58085661  0.37874210     0.04800
H119        H  0.58617980  0.56078313  0.37603454     0.09900
H120        H  0.55818462  0.58929061  0.37725775     0.08700
N121        N  0.42813845  0.61535616  0.42959660    -0.25700
N122        N  0.42002937  0.61594352  0.43891645    -0.33500
C123        C  0.41083214  0.62395126  0.43584945     0.02700
C124        C  0.41326655  0.62861846  0.42407267     0.08700
C125        C  0.42428365  0.62300585  0.42035417    -0.04400
H126        H  0.40294806  0.62617681  0.44175931     0.09300
H127        H  0.42913301  0.62435630  0.41158882     0.10500
Cu128      Cu  0.42162973  0.60577975  0.45541549     0.44200
Cu129      Cu  0.44408685  0.60411733  0.42989351     0.42000
Cu130      Cu  0.44857928  0.58575853  0.45809750     0.43900
N131        N  0.42494954  0.59429256  0.47074341    -0.33100
N132        N  0.43483867  0.58695617  0.47169623    -0.27300
C133        C  0.43409478  0.58040613  0.48241175    -0.03400
C134        C  0.42323188  0.58380463  0.48844794     0.08800
C135        C  0.41764063  0.59260504  0.48084480     0.02600
H136        H  0.44084568  0.57353328  0.48544784     0.10200
H137        H  0.40881910  0.59726841  0.48240852     0.09300
N138        N  0.46086916  0.58561076  0.44312520    -0.34500
N139        N  0.45928218  0.59223300  0.43279617    -0.26700
C140        C  0.46898101  0.59008132  0.42506563    -0.01900
C141        C  0.47696484  0.58174095  0.43084941     0.06700
C142        C  0.47157402  0.57909522  0.44225060     0.04800
H143        H  0.47018518  0.59437199  0.41598879     0.09900
H144        H  0.47520143  0.57298747  0.44944129     0.08700
N145        N  0.58248046  0.02845992  0.06370418    -0.25700
N146        N  0.58924496  0.02997579  0.07394057    -0.33500
C147        C  0.58737700  0.02014790  0.08158040     0.02700
C148        C  0.57906525  0.01211929  0.07586064     0.08700
C149        C  0.57613188  0.01762958  0.06456696    -0.04400
H150        H  0.59171319  0.01897751  0.09063535     0.09300
H151        H  0.56982405  0.01407855  0.05752025     0.10500
Cu152      Cu  0.60051484  0.04547442  0.07721458     0.44200
Cu153      Cu  0.58195360  0.04133177  0.04914683     0.42000
Cu154      Cu  0.60002973  0.06970761  0.05360650     0.43900
N155        N  0.61040039  0.06214901  0.07873483    -0.33100
N156        N  0.61019208  0.07102034  0.07011780    -0.27300
C157        C  0.61725502  0.08067749  0.07400449    -0.03400
C158        C  0.62210223  0.07771595  0.08559128     0.08800
C159        C  0.61760636  0.06593058  0.08832944     0.02600
H160        H  0.61866078  0.08924348  0.06881973     0.10200
H161        H  0.61933627  0.06054321  0.09670863     0.09300
N162        N  0.58882156  0.06638729  0.03808857    -0.34500
N163        N  0.58228077  0.05602691  0.03642709    -0.26700
C164        C  0.57589292  0.05691728  0.02562461    -0.01900
C165        C  0.57855647  0.06836486  0.02029907     0.06700
C166        C  0.58675860  0.07413952  0.02839403     0.04800
H167        H  0.56968778  0.04981398  0.02200439     0.09900
H168        H  0.59085026  0.08332793  0.02738408     0.08700
N169        N  0.52731792  0.08471395  0.94215806    -0.25700
N170        N  0.52901781  0.09125846  0.93179536    -0.33500
C171        C  0.51927272  0.08922664  0.92407970     0.02700
C172        C  0.51113564  0.08104763  0.92990966     0.08700
C173        C  0.51649341  0.07837437  0.94132108    -0.04400
H174        H  0.51815227  0.09347287  0.91497234     0.09300
H175        H  0.51277620  0.07234204  0.94853383     0.10500
Cu176      Cu  0.54443646  0.10288845  0.92886097     0.44200
Cu177      Cu  0.53964490  0.08469760  0.95711978     0.42000
Cu178      Cu  0.56675699  0.10454012  0.95454709     0.43900
N179        N  0.56044814  0.11408116  0.92867162    -0.33100
N180        N  0.56848061  0.11469545  0.93805741    -0.27300
C181        C  0.57770715  0.12270929  0.93505314    -0.03400
C182        C  0.57537465  0.12734649  0.92324491     0.08800
C183        C  0.56438837  0.12171325  0.91944696     0.02600
H184        H  0.58554509  0.12495072  0.94102225     0.10200
H185        H  0.55961416  0.12304248  0.91063889     0.09300
N186        N  0.56331436  0.09305193  0.96984517    -0.34500
N187        N  0.55336997  0.08577150  0.97076602    -0.26700
C188        C  0.55402071  0.07924428  0.98150409    -0.01900
C189        C  0.56488032  0.08260281  0.98758374     0.06700
C190        C  0.57056492  0.09135124  0.97998293     0.04800
H191        H  0.54719532  0.07243484  0.98454084     0.09900
H192        H  0.57939795  0.09599088  0.98158703     0.08700
N193        N  0.42335000  0.02975738  0.90749949    -0.25700
N194        N  0.43359146  0.02834587  0.91428257    -0.33500
C195        C  0.43289912  0.01744696  0.92054531     0.02700
C196        C  0.42171154  0.01176479  0.91756258     0.08700
C197        C  0.41587457  0.01978037  0.90929000    -0.04400
H198        H  0.44000957  0.01394616  0.92681092     0.09300
H199        H  0.40687468  0.01847070  0.90488819     0.10500
Cu200      Cu  0.44804441  0.04134907  0.91488449     0.44200
Cu201      Cu  0.42002256  0.04521502  0.89607942     0.42000
Cu202      Cu  0.44395576  0.06927119  0.89624265     0.43900
N203        N  0.46095771  0.05588851  0.91433609    -0.33100
N204        N  0.45942028  0.06611798  0.90755932    -0.27300
C205        C  0.46935011  0.07366498  0.90920111    -0.03400
C206        C  0.47748814  0.06789091  0.91737299     0.08800
C207        C  0.47191728  0.05666125  0.92046810     0.02600
H208        H  0.47056672  0.08264852  0.90472347     0.10200
H209        H  0.47555792  0.04956062  0.92666998     0.09300
N210        N  0.42780456  0.07025935  0.88550563    -0.34500
N211        N  0.41905775  0.06151677  0.88540990    -0.26700
C212        C  0.40991896  0.06500299  0.87748090    -0.01900
C213        C  0.41310822  0.07644593  0.87239807     0.06700
C214        C  0.42446871  0.07951331  0.87765926     0.04800
H215        H  0.40159533  0.05960305  0.87556473     0.09900
H216        H  0.42992680  0.08784274  0.87591922     0.08700
N217        N  0.56422693  0.96102374  0.09966220    -0.25700
N218        N  0.55410647  0.96226921  0.09267906    -0.33500
C219        C  0.55482791  0.97307468  0.08627274     0.02700
C220        C  0.56591024  0.97887012  0.08939759     0.08700
C221        C  0.57165863  0.97102396  0.09788103    -0.04400
H222        H  0.54782408  0.97641932  0.07980402     0.09300
H223        H  0.58058604  0.97243978  0.10239581     0.10500
Cu224      Cu  0.53984792  0.94914603  0.09204590     0.44200
Cu225      Cu  0.56750355  0.94567814  0.11118423     0.42000
Cu226      Cu  0.54425461  0.92104260  0.11061862     0.43900
N227        N  0.52720044  0.93445939  0.09253610    -0.33100
N228        N  0.52882698  0.92417555  0.09921373    -0.27300
C229        C  0.51908000  0.91646449  0.09727743    -0.03400
C230        C  0.51100189  0.92220737  0.08902626     0.08800
C231        C  0.51638435  0.93357218  0.08619510     0.02600
H232        H  0.51799976  0.90735203  0.10152227     0.10200
H233        H  0.51277704  0.94063902  0.07993421     0.09300
N234        N  0.56040381  0.92030676  0.12142398    -0.34500
N235        N  0.56885997  0.92932571  0.12166437    -0.26700
C236        C  0.57812592  0.92602579  0.12951108    -0.01900
C237        C  0.57534987  0.91440749  0.13440543     0.06700
C238        C  0.56407678  0.91103393  0.12910883     0.04800
H239        H  0.58628767  0.93165487  0.13146158     0.09900
H240        H  0.55892987  0.90247792  0.13068991     0.08700
N241        N  0.46050746  0.89800809  0.07332005    -0.25700
N242        N  0.46218946  0.90444039  0.06288967    -0.33500
C243        C  0.47298367  0.91084054  0.06371147     0.02700
C244        C  0.47828045  0.90828796  0.07518867     0.08700
C245        C  0.47017937  0.90015099  0.08105813    -0.04400
H246        H  0.47662951  0.91695447  0.05653183     0.09300
H247        H  0.47118912  0.89612501  0.09027845     0.10500
Cu248      Cu  0.44951585  0.90457647  0.04820513     0.44200
Cu249      Cu  0.44506687  0.88673547  0.07666929     0.42000
Cu250      Cu  0.42099172  0.88668887  0.05292281     0.43900
N251        N  0.43486135  0.90420687  0.03549863    -0.33100
N252        N  0.42441450  0.89781483  0.03723022    -0.27300
C253        C  0.41676312  0.89983537  0.02743652    -0.03400
C254        C  0.42270444  0.90784361  0.01921960     0.08800
C255        C  0.43413448  0.91043555  0.02458523     0.02600
H256        H  0.40755292  0.89580713  0.02640924     0.10200
H257        H  0.44135985  0.91646621  0.02089547     0.09300
N258        N  0.41992726  0.87622727  0.06939383    -0.34500
N259        N  0.42877913  0.87626398  0.07802296    -0.26700
C260        C  0.42540326  0.86862061  0.08743804    -0.01900
C261        C  0.41389529  0.86354379  0.08460624     0.06700
C262        C  0.41066775  0.86853559  0.07312357     0.04800
H263        H  0.43092630  0.86690640  0.09572696     0.09900
H264        H  0.40223305  0.86672061  0.06786659     0.08700
N265        N  0.37673167  0.91967096  0.93671124    -0.25700
N266        N  0.37643093  0.92869288  0.92824992    -0.33500
C267        C  0.36807347  0.92567470  0.91934009     0.02700
C268        C  0.36289632  0.91423839  0.92234860     0.08700
C269        C  0.36857218  0.91067577  0.93338961    -0.04400
H270        H  0.36590896  0.93140817  0.91129924     0.09300
H271        H  0.36686381  0.90221657  0.93865912     0.10500
Cu272      Cu  0.38730499  0.94481054  0.92925706     0.44200
Cu273      Cu  0.38803655  0.92018996  0.95256529     0.42000
Cu274      Cu  0.40693907  0.94813321  0.95664221     0.43900
N275        N  0.39891321  0.96012433  0.93236575    -0.33100
N276        N  0.40607050  0.96134413  0.94237217    -0.27300
C277        C  0.41235930  0.97222206  0.94159661    -0.03400
C278        C  0.40897837  0.97808549  0.93060143     0.08800
C279        C  0.40046295  0.97019734  0.92496770     0.02600
H280        H  0.41888602  0.97559838  0.94852820     0.10200
H281        H  0.39572546  0.97166175  0.91616042     0.09300
N282        N  0.40634505  0.93352054  0.96948940    -0.34500
N283        N  0.39954115  0.92330606  0.96796532    -0.26700
C284        C  0.40127801  0.91571619  0.97786234    -0.01900
C285        C  0.40953391  0.92144340  0.98595296     0.06700
C286        C  0.41257138  0.93269284  0.98039625     0.04800
H287        H  0.39684334  0.90671275  0.97906992     0.09900
H288        H  0.41884896  0.93974936  0.98398451     0.08700
N289        N  0.07054139  0.61079946  0.07068843    -0.25700
N290        N  0.06220088  0.61060841  0.07980763    -0.33500
C291        C  0.06598510  0.61839673  0.08893285     0.02700
C292        C  0.07719753  0.62367340  0.08531424     0.08700
C293        C  0.07982598  0.61869263  0.07374061    -0.04400
H294        H  0.06089139  0.62016773  0.09747727     0.09300
H295        H  0.08782938  0.62071377  0.06790903     0.10500
Cu296      Cu  0.04586774  0.60006699  0.07911002     0.44200
Cu297      Cu  0.06890186  0.60057282  0.05435776     0.42000
Cu298      Cu  0.04023785  0.58350380  0.04987204     0.43900
N299        N  0.02992577  0.58952504  0.07549323    -0.33100
N300        N  0.02782512  0.58369244  0.06479606    -0.27300
C301        C  0.01671923  0.57783422  0.06543252    -0.03400
C302        C  0.01163851  0.58008295  0.07705687     0.08800
C303        C  0.02019924  0.58750452  0.08321886     0.02600
H304        H  0.01270245  0.57228693  0.05800842     0.10200
H305        H  0.01944137  0.59115948  0.09260716     0.09300
N306        N  0.05470870  0.58366861  0.03693464    -0.34500
N307        N  0.06526185  0.58985134  0.03867934    -0.26700
C308        C  0.07287828  0.58785637  0.02888952    -0.01900
C309        C  0.06680541  0.58006726  0.02062543     0.06700
C310        C  0.05532658  0.57756449  0.02595906     0.04800
H311        H  0.08216304  0.59172929  0.02792150     0.09900
H312        H  0.04802488  0.57166472  0.02222626     0.08700
N313        N  0.11327888  0.56802189  0.93845937    -0.25700
N314        N  0.11349975  0.55900158  0.93001288    -0.33500
C315        C  0.12126767  0.56232841  0.92068444     0.02700
C316        C  0.12612138  0.57396370  0.92341192     0.08700
C317        C  0.12089568  0.57731707  0.93471516    -0.04400
H318        H  0.12314948  0.55672986  0.91249133     0.09300
H319        H  0.12244029  0.58589953  0.93981371     0.10500
Cu320      Cu  0.10296005  0.54270465  0.93131719     0.44200
Cu321      Cu  0.10248462  0.56743915  0.95462907     0.42000
Cu322      Cu  0.08278003  0.54016550  0.95830488     0.43900
N323        N  0.09098822  0.52769821  0.93443555    -0.33100
N324        N  0.08355483  0.52682831  0.94427357    -0.27300
C325        C  0.07695777  0.51614579  0.94352707    -0.03400
C326        C  0.08043552  0.51004390  0.93272241     0.08800
C327        C  0.08932032  0.51757613  0.92716719     0.02600
H328        H  0.07017122  0.51306399  0.95035398     0.10200
H329        H  0.09420965  0.51584869  0.91849556     0.09300
N330        N  0.08363128  0.55458052  0.97121468    -0.34500
N331        N  0.09080116  0.56456895  0.96990911    -0.26700
C332        C  0.08909306  0.57212518  0.97981540    -0.01900
C333        C  0.08046371  0.56658208  0.98765257     0.06700
C334        C  0.07718809  0.55550184  0.98196637     0.04800
H335        H  0.09374375  0.58099605  0.98116540     0.09900
H336        H  0.07057579  0.54864003  0.98533835     0.08700
N337        N  0.06583161  0.45863268  0.90968723    -0.25700
N338        N  0.05540153  0.46018793  0.91613653    -0.33500
C339        C  0.05603409  0.47107269  0.92238825     0.02700
C340        C  0.06738089  0.47658525  0.91973712     0.08700
C341        C  0.07337661  0.46850235  0.91168067    -0.04400
H342        H  0.04877356  0.47467630  0.92841133     0.09300
H343        H  0.08252543  0.46969483  0.90755781     0.10500
Cu344      Cu  0.04077468  0.44743574  0.91633267     0.44200
Cu345      Cu  0.06932641  0.44316491  0.89843453     0.42000
Cu346      Cu  0.04497106  0.41952469  0.89799116     0.43900
N347        N  0.02773316  0.43308885  0.91558097    -0.33100
N348        N  0.02931473  0.42282471  0.90890101    -0.27300
C349        C  0.01937501  0.41529525  0.91051628    -0.03400
C350        C  0.01119792  0.42113388  0.91857541     0.08800
C351        C  0.01673244  0.43237208  0.92162747     0.02600
H352        H  0.01823175  0.40624157  0.90618357     0.10200
H353        H  0.01309547  0.43946466  0.92782475     0.09300
N354        N  0.06138381  0.41826545  0.88778186    -0.34500
N355        N  0.07029089  0.42684142  0.88790738    -0.26700
C356        C  0.07960290  0.42315345  0.88029786    -0.01900
C357        C  0.07634742  0.41175402  0.87520829     0.06700
C358        C  0.06477864  0.40891734  0.88011191     0.04800
H359        H  0.08808448  0.42838468  0.87860696     0.09900
H360        H  0.05922164  0.40068341  0.87825693     0.08700
N361        N  0.95990460  0.56507823  0.09923208    -0.25700
N362        N  0.96151668  0.55491397  0.09239613    -0.33500
C363        C  0.97255785  0.55570867  0.08642986     0.02700
C364        C  0.97810620  0.56687902  0.08969554     0.08700
C365        C  0.96988140  0.57260521  0.09779540    -0.04400
H366        H  0.97625069  0.54867525  0.08019748     0.09300
H367        H  0.97104901  0.58155626  0.10232863     0.10500
Cu368      Cu  0.94867369  0.54037950  0.09152175     0.44200
Cu369      Cu  0.94429393  0.56819947  0.11035292     0.42000
Cu370      Cu  0.92073844  0.54386625  0.11030366     0.43900
N371        N  0.93442535  0.52720625  0.09216472    -0.33100
N372        N  0.92420701  0.52849902  0.09899271    -0.27300
C373        C  0.91678993  0.51849924  0.09721773    -0.03400
C374        C  0.92264556  0.51059224  0.08889890     0.08800
C375        C  0.93378142  0.51634691  0.08586756     0.02600
H376        H  0.90777727  0.51715236  0.10158646     0.10200
H377        H  0.94084199  0.51296937  0.07948625     0.09300
N378        N  0.91955311  0.55993917  0.12109061    -0.34500
N379        N  0.92813959  0.56883469  0.12112253    -0.26700
C380        C  0.92467838  0.57782012  0.12920608    -0.01900
C381        C  0.91340911  0.57437290  0.13445852     0.06700
C382        C  0.91040732  0.56302713  0.12913982     0.04800
H383        H  0.93000499  0.58618549  0.13114703     0.09900
H384        H  0.90222907  0.55739098  0.13101433     0.08700
N385        N  0.89846599  0.42373731  0.03712628    -0.25700
N386        N  0.90547812  0.43382216  0.03568713    -0.33500
C387        C  0.91153922  0.43306278  0.02469081     0.02700
C388        C  0.90814790  0.42200040  0.01900070     0.08700
C389        C  0.89988292  0.41630175  0.02709397    -0.04400
H390        H  0.91790844  0.44005225  0.02111801     0.09300
H391        H  0.89521566  0.40743201  0.02579589     0.10500
Cu392      Cu  0.90644884  0.44821391  0.04869154     0.44200
Cu393      Cu  0.88717403  0.42053249  0.05258386     0.42000
Cu394      Cu  0.88702995  0.44476676  0.07617916     0.43900
N395        N  0.90580162  0.46124826  0.06306861    -0.33100
N396        N  0.89867371  0.45999262  0.07309181    -0.27300
C397        C  0.90047353  0.46986876  0.08065527    -0.03400
C398        C  0.90912948  0.47765710  0.07510838     0.08800
C399        C  0.91232849  0.47196348  0.06399273     0.02600
H400        H  0.89588010  0.47121711  0.08955495     0.10200
H401        H  0.91894563  0.47530228  0.05712086     0.09300
N402        N  0.87658788  0.42844978  0.07747140    -0.34500
N403        N  0.87666206  0.41958333  0.06886934    -0.26700
C404        C  0.86910335  0.41022902  0.07256410    -0.01900
C405        C  0.86408454  0.41339270  0.08400879     0.06700
C406        C  0.86898310  0.42496973  0.08686912     0.04800
H407        H  0.86744872  0.40174934  0.06733115     0.09900
H408        H  0.86722324  0.43043573  0.09517856     0.08700
N409        N  0.96019580  0.39710196  0.93295363    -0.25700
N410        N  0.96108188  0.40444041  0.94284522    -0.33500
C411        C  0.97177666  0.41100945  0.94214151     0.02700
C412        C  0.97785693  0.40761374  0.93130138     0.08700
C413        C  0.97031236  0.39879936  0.92567854    -0.04400
H414        H  0.97484216  0.41778102  0.94897919     0.09300
H415        H  0.97199646  0.39402190  0.91693866     0.10500
Cu416      Cu  0.94757957  0.40532130  0.95670483     0.44200
Cu417      Cu  0.94510892  0.38534183  0.92980341     0.42000
Cu418      Cu  0.91973131  0.38646271  0.95254745     0.43900
N419        N  0.93279687  0.40510522  0.96922082    -0.33100
N420        N  0.92257718  0.39830803  0.96773782    -0.27300
C421        C  0.91490737  0.40031082  0.97751427    -0.03400
C422        C  0.92061967  0.40874232  0.98544183     0.08800
C423        C  0.93191458  0.41158973  0.97994340     0.02600
H424        H  0.90590724  0.39589163  0.97878494     0.10200
H425        H  0.93900722  0.41785337  0.98348357     0.09300
N426        N  0.91963652  0.37518072  0.93667149    -0.34500
N427        N  0.92890557  0.37477276  0.92849521    -0.26700
C428        C  0.92601160  0.36659947  0.91940346    -0.01900
C429        C  0.91440174  0.36165180  0.92197944     0.06700
C430        C  0.91059053  0.36725222  0.93296222     0.04800
H431        H  0.93192674  0.36445279  0.91149975     0.09900
H432        H  0.90190906  0.36569601  0.93789492     0.08700
N433        N  0.06348040  0.02927629  0.59876548    -0.25700
N434        N  0.05329362  0.02792292  0.59190174    -0.33500
C435        C  0.05403444  0.01708189  0.58558274     0.02700
C436        C  0.06519869  0.01140810  0.58864500     0.08700
C437        C  0.07097052  0.01934272  0.59699925    -0.04400
H438        H  0.04701441  0.01365406  0.57917858     0.09300
H439        H  0.07996965  0.01805439  0.60140925     0.10500
Cu440      Cu  0.03896315  0.04100741  0.59127658     0.44200
Cu441      Cu  0.06680543  0.04462570  0.61011425     0.42000
Cu442      Cu  0.04319164  0.06886701  0.61014887     0.43900
N443        N  0.02610128  0.05553140  0.59206517    -0.33100
N444        N  0.02766677  0.06570743  0.59890014    -0.27300
C445        C  0.01772600  0.07324527  0.59734030    -0.03400
C446        C  0.00956780  0.06751694  0.58916455     0.08800
C447        C  0.01512287  0.05633058  0.58598201     0.02600
H448        H  0.01654283  0.08221341  0.60183188     0.10200
H449        H  0.01148512  0.04929796  0.57971094     0.09300
N450        N  0.05935038  0.06956195  0.62091973    -0.34500
N451        N  0.06795007  0.06069253  0.62087744    -0.26700
C452        C  0.07712355  0.06381839  0.62887831    -0.01900
C453        C  0.07413069  0.07516367  0.63417962     0.06700
C454        C  0.06283491  0.07857468  0.62896950     0.04800
H455        H  0.08532134  0.05821282  0.63072121     0.09900
H456        H  0.05751561  0.08693825  0.63090492     0.08700
N457        N  0.11057188  0.92014374  0.56829953    -0.25700
N458        N  0.11060995  0.92883114  0.57708420    -0.33500
C459        C  0.11815843  0.92515176  0.58644735     0.02700
C460        C  0.12305581  0.91363710  0.58336684     0.08700
C461        C  0.11809592  0.91071460  0.57183544    -0.04400
H462        H  0.11989691  0.93044847  0.59487140     0.09300
H463        H  0.11977519  0.90235187  0.56642865     0.10500
Cu464      Cu  0.10028395  0.94523197  0.57602915     0.44200
Cu465      Cu  0.10020558  0.92141013  0.55195445     0.42000
Cu466      Cu  0.08170471  0.94949545  0.54804598     0.43900
N467        N  0.08898803  0.96070065  0.57289100    -0.33100
N468        N  0.08222563  0.96226979  0.56266094    -0.27300
C469        C  0.07587774  0.97308166  0.56356686    -0.03400
C470        C  0.07880212  0.97851423  0.57488595     0.08800
C471        C  0.08711649  0.97046948  0.58057692     0.02600
H472        H  0.06955006  0.97665553  0.55654721     0.10200
H473        H  0.09143046  0.97157442  0.58964940     0.09300
N474        N  0.08240862  0.93517069  0.53495062    -0.34500
N475        N  0.08912722  0.92490460  0.53641984    -0.26700
C476        C  0.08757202  0.91751965  0.52637016    -0.01900
C477        C  0.07952175  0.92344127  0.51822928     0.06700
C478        C  0.07640226  0.93458542  0.52391173     0.04800
H479        H  0.09200231  0.90853301  0.52509163     0.09900
H480        H  0.07024783  0.94174069  0.52031017     0.08700
N481        N  0.02711639  0.90592297  0.44153718    -0.25700
N482        N  0.02803422  0.89850129  0.43171072    -0.33500
C483        C  0.01790721  0.90007815  0.42442247     0.02700
C484        C  0.01032375  0.90890147  0.42996813     0.08700
C485        C  0.01639448  0.91242530  0.44077519    -0.04400
H486        H  0.01625574  0.89523547  0.41571061     0.09300
H487        H  0.01331136  0.91925329  0.44754372     0.10500
Cu488      Cu  0.04322894  0.88687069  0.42862505     0.44200
Cu489      Cu  0.04060430  0.90702268  0.45540542     0.42000
Cu490      Cu  0.06861219  0.88850494  0.45139278     0.43900
N491        N  0.05964235  0.87663730  0.42733773    -0.33100
N492        N  0.06891183  0.87726042  0.43550155    -0.27300
C493        C  0.07808710  0.86947849  0.43183149    -0.03400
C494        C  0.07436139  0.86374494  0.42088917     0.08800
C495        C  0.06266712  0.86846195  0.41829417     0.02600
H496        H  0.08677299  0.86806799  0.43679608     0.10200
H497        H  0.05676307  0.86612095  0.41043592     0.09300
N498        N  0.06553546  0.90018035  0.46665811    -0.34500
N499        N  0.05525653  0.90688284  0.46808385    -0.26700
C500        C  0.05597289  0.91327115  0.47887913    -0.01900
C501        C  0.06722072  0.91045386  0.48448534     0.06700
C502        C  0.07307600  0.90214267  0.47654381     0.04800
H503        H  0.04879850  0.91944345  0.48239769     0.09900
H504        H  0.08208785  0.89777828  0.47787698     0.08700
N505        N  0.95809984  0.09058350  0.57441202    -0.25700
N506        N  0.96004675  0.08440050  0.56388404    -0.33500
C507        C  0.97104145  0.07836382  0.56465371     0.02700
C508        C  0.97621697  0.08086038  0.57618728     0.08700
C509        C  0.96782231  0.08861543  0.58215586    -0.04400
H510        H  0.97492153  0.07253353  0.55737922     0.09300
H511        H  0.96868782  0.09252639  0.59143106     0.10500
Cu512      Cu  0.94760064  0.08402271  0.54898821     0.44200
Cu513      Cu  0.94233673  0.10147756  0.57781446     0.42000
Cu514      Cu  0.91914310  0.10148519  0.55327147     0.43900
N515        N  0.93316304  0.08428119  0.53601440    -0.33100
N516        N  0.92269590  0.09061329  0.53768819    -0.27300
C517        C  0.91511591  0.08873242  0.52784778    -0.03400
C518        C  0.92112086  0.08086053  0.51962533     0.08800
C519        C  0.93252145  0.07818792  0.52503403     0.02600
H520        H  0.90591354  0.09276539  0.52680336     0.10200
H521        H  0.93976659  0.07220937  0.52133164     0.09300
N522        N  0.91762627  0.11208589  0.56936614    -0.34500
N523        N  0.92605335  0.11211667  0.57840548    -0.26700
C524        C  0.92237137  0.12014655  0.58736000    -0.01900
C525        C  0.91113672  0.12534924  0.58371288     0.06700
C526        C  0.90838715  0.12006685  0.57229917     0.04800
H527        H  0.92754239  0.12212267  0.59581296     0.09900
H528        H  0.90033450  0.12194410  0.56649136     0.08700
N529        N  0.89710353  0.02858932  0.43341523    -0.25700
N530        N  0.90467971  0.02783881  0.44315383    -0.33500
C531        C  0.91139373  0.01725097  0.44233741     0.02700
C532        C  0.90784213  0.01109807  0.43159259     0.08700
C533        C  0.89879563  0.01848468  0.42614269    -0.04400
H534        H  0.91829836  0.01426410  0.44908341     0.09300
H535        H  0.89380059  0.01666492  0.41754924     0.10500
Cu536      Cu  0.90551210  0.04114377  0.45718148     0.44200
Cu537      Cu  0.88485814  0.04334579  0.43039305     0.42000
Cu538      Cu  0.88537094  0.06800199  0.45366772     0.43900
N539        N  0.90458202  0.05552811  0.47008444    -0.33100
N540        N  0.89723957  0.06538355  0.46883462    -0.27300
C541        C  0.89886578  0.07294946  0.47874690    -0.03400
C542        C  0.90762652  0.06754731  0.48652537     0.08800
C543        C  0.91106259  0.05654238  0.48080244     0.02600
H544        H  0.89404515  0.08171238  0.48015653     0.10200
H545        H  0.91778072  0.04977901  0.48414364     0.09300
N546        N  0.87423294  0.06840947  0.43774090    -0.34500
N547        N  0.87398987  0.05939827  0.42928897    -0.26700
C548        C  0.86595201  0.06257296  0.42014442    -0.01900
C549        C  0.86094331  0.07410168  0.42300742     0.06700
C550        C  0.86636220  0.07755122  0.43418938     0.04800
H551        H  0.86399923  0.05695220  0.41198098     0.09900
H552        H  0.86478204  0.08609804  0.43933053     0.08700
N553        N  0.95895260  0.92420082  0.40740284    -0.25700
N554        N  0.96053763  0.93441739  0.41415197    -0.33500
C555        C  0.97152438  0.93366347  0.42021785     0.02700
C556        C  0.97705170  0.92244483  0.41710228     0.08700
C557        C  0.96887937  0.91666059  0.40898612    -0.04400
H558        H  0.97514660  0.94070607  0.42648634     0.09300
H559        H  0.97000303  0.90762274  0.40461927     0.10500
Cu560      Cu  0.94745141  0.94868401  0.41496921     0.44200
Cu561      Cu  0.94321717  0.92097079  0.39657211     0.42000
Cu562      Cu  0.91855122  0.94424956  0.39748142     0.43900
N563        N  0.93279145  0.96135619  0.41486761    -0.33100
N564        N  0.92226426  0.95974756  0.40858571    -0.27300
C565        C  0.91475026  0.96961226  0.41063150    -0.03400
C566        C  0.92087019  0.97773832  0.41854573     0.08800
C567        C  0.93225167  0.97227059  0.42106400     0.02600
H568        H  0.90553725  0.97076540  0.40664741     0.10200
H569        H  0.93959547  0.97591791  0.42696459     0.09300
N570        N  0.91758556  0.92792273  0.38699864    -0.34500
N571        N  0.92662522  0.91950613  0.38667319    -0.26700
C572        C  0.92323744  0.91013348  0.37902943    -0.01900
C573        C  0.91153643  0.91278326  0.37435678     0.06700
C574        C  0.90819036  0.92410292  0.37955202     0.04800
H575        H  0.92890034  0.90201811  0.37701692     0.09900
H576        H  0.89961108  0.92920857  0.37801401     0.08700
N577        N  0.84758473  0.61232312  0.20525046    -0.25700
N578        N  0.84808263  0.60252580  0.19774617    -0.33500
C579        C  0.83824912  0.59504064  0.20021141     0.02700
C580        C  0.83134749  0.60046563  0.20968826     0.08700
C581        C  0.83750161  0.61136054  0.21266347    -0.04400
H582        H  0.83634442  0.58629132  0.19554026     0.09300
H583        H  0.83490156  0.61808253  0.21973884     0.10500
Cu584      Cu  0.86246173  0.59986082  0.18486185     0.44200
Cu585      Cu  0.86057463  0.62661433  0.20534648     0.42000
Cu586      Cu  0.88685509  0.62413572  0.18491434     0.43900
N587        N  0.87850938  0.59941042  0.17379976    -0.33100
N588        N  0.88731357  0.60811115  0.17394608    -0.27300
C589        C  0.89642865  0.60486889  0.16592443    -0.03400
C590        C  0.89320409  0.59364819  0.16049237     0.08800
C591        C  0.88182408  0.59042085  0.16564852     0.02600
H592        H  0.90477806  0.61029431  0.16419378     0.10200
H593        H  0.87637372  0.58214421  0.16367486     0.09300
N594        N  0.88405639  0.63932877  0.19668389    -0.34500
N595        N  0.87429734  0.64015934  0.20419937    -0.26700
C596        C  0.87498762  0.65087746  0.21069740    -0.01900
C597        C  0.88568195  0.65707976  0.20708061     0.06700
C598        C  0.89125657  0.64954328  0.19820482     0.04800
H599        H  0.86824548  0.65386510  0.21760171     0.09900
H600        H  0.89991227  0.65128994  0.19329443     0.08700
N601        N  0.91324650  0.75973966  0.26362417    -0.25700
N602        N  0.92404393  0.76370455  0.26815925    -0.33500
C603        C  0.92218333  0.77421250  0.27476076     0.02700
C604        C  0.90964176  0.77703231  0.27440299     0.08700
C605        C  0.90419398  0.76771274  0.26727319    -0.04400
H606        H  0.92946432  0.77943455  0.27943360     0.09300
H607        H  0.89441931  0.76679485  0.26490845     0.10500
Cu608      Cu  0.94103314  0.75501340  0.26520462     0.44200
Cu609      Cu  0.91154787  0.74353108  0.25277201     0.42000
Cu610      Cu  0.94107588  0.72770687  0.24612567     0.43900
N611        N  0.95715950  0.74554003  0.26044513    -0.33100
N612        N  0.95721700  0.73557397  0.25319159    -0.27300
C613        C  0.96907123  0.73181935  0.25146365    -0.03400
C614        C  0.97683071  0.73984994  0.25799726     0.08800
C615        C  0.96896369  0.74838501  0.26360799     0.02600
H616        H  0.97176087  0.72384784  0.24589456     0.10200
H617        H  0.97163271  0.75620375  0.26940680     0.09300
N618        N  0.92380009  0.72109280  0.24060470    -0.34500
N619        N  0.91302063  0.72669149  0.24290324    -0.26700
C620        C  0.90372625  0.71958418  0.23821326    -0.01900
C621        C  0.90900067  0.70912192  0.23276703     0.06700
C622        C  0.92168231  0.71036424  0.23445601     0.04800
H623        H  0.89389327  0.72178948  0.23886841     0.09900
H624        H  0.92886717  0.70387765  0.23157222     0.08700
N625        N  0.87466470  0.84538303  0.30446642    -0.25700
N626        N  0.88425618  0.84613992  0.31222385    -0.33500
C627        C  0.89173278  0.83616699  0.31041001     0.02700
C628        C  0.88653784  0.82886634  0.30109319     0.08700
C629        C  0.87576619  0.83496469  0.29753673    -0.04400
H630        H  0.90031441  0.83441189  0.31544186     0.09300
H631        H  0.86921834  0.83208365  0.29040095     0.10500
Cu632      Cu  0.88657875  0.86092372  0.32473917     0.44200
Cu633      Cu  0.86044003  0.85851618  0.30352859     0.42000
Cu634      Cu  0.86205177  0.88486316  0.32430587     0.43900
N635        N  0.88658130  0.87688957  0.33594431    -0.33100
N636        N  0.87770274  0.88549605  0.33574371    -0.27300
C637        C  0.88064700  0.89463003  0.34385590    -0.03400
C638        C  0.89186976  0.89162603  0.34940368     0.08800
C639        C  0.89540794  0.88036186  0.34421577     0.02600
H640        H  0.87508946  0.90290728  0.34546569     0.10200
H641        H  0.90383047  0.87514590  0.34617986     0.09300
N642        N  0.84749620  0.88209781  0.31178762    -0.34500
N643        N  0.84694978  0.87242063  0.30413777    -0.26700
C644        C  0.83651279  0.87326304  0.29718309    -0.01900
C645        C  0.83022982  0.88396136  0.30065235     0.06700
C646        C  0.83741058  0.88936830  0.30990626     0.04800
H647        H  0.83374487  0.86659862  0.29011398     0.09900
H648        H  0.83549362  0.89795187  0.31486701     0.08700
N649        N  0.61479581  0.64363815  0.30310422    -0.25700
N650        N  0.60429059  0.64234168  0.30948961    -0.33500
C651        C  0.59651528  0.65175087  0.30644325     0.02700
C652        C  0.60245987  0.65924717  0.29776906     0.08700
C653        C  0.61399388  0.65387083  0.29584180    -0.04400
H654        H  0.58726696  0.65304526  0.31028814     0.09300
H655        H  0.62128674  0.65714568  0.28965184     0.10500
Cu656      Cu  0.60114895  0.62789038  0.32217037     0.44200
Cu657      Cu  0.62982717  0.63153309  0.30448851     0.42000
Cu658      Cu  0.62709911  0.60610950  0.32630256     0.43900
N659        N  0.60081218  0.61276841  0.33445823    -0.33100
N660        N  0.61028170  0.60496907  0.33600002    -0.27300
C661        C  0.60707127  0.59623795  0.34447376    -0.03400
C662        C  0.59504947  0.59865317  0.34842357     0.08800
C663        C  0.59132698  0.60917063  0.34192223     0.02600
H664        H  0.61301541  0.58862317  0.34742758     0.10200
H665        H  0.58237634  0.61381419  0.34249104     0.09300
N666        N  0.64264747  0.60875744  0.31491839    -0.34500
N667        N  0.64358137  0.61814393  0.30692801    -0.26700
C668        C  0.65439956  0.61714834  0.30062303    -0.01900
C669        C  0.66055507  0.60665398  0.30485487     0.06700
C670        C  0.65288232  0.60150915  0.31389308     0.04800
H671        H  0.65741999  0.62346030  0.29332115     0.09900
H672        H  0.65448109  0.59302136  0.31914473     0.08700
N673        N  0.64348621  0.87441258  0.20224218    -0.25700
N674        N  0.64215326  0.88478045  0.19563666    -0.33500
C675        C  0.65174754  0.89251184  0.19826446     0.02700
C676        C  0.65938530  0.88665790  0.20689734     0.08700
C677        C  0.65389161  0.87524789  0.20922194    -0.04400
H678        H  0.65299118  0.90171826  0.19428492     0.09300
H679        H  0.65713891  0.86810335  0.21559702     0.10500
Cu680      Cu  0.62711347  0.88780720  0.18357236     0.44200
Cu681      Cu  0.63110231  0.85957842  0.20174324     0.42000
Cu682      Cu  0.60452931  0.86218535  0.18130859     0.43900
N683        N  0.61116326  0.88824577  0.17233275    -0.33100
N684        N  0.60304650  0.87894194  0.17149033    -0.27300
C685        C  0.59388697  0.88221349  0.16350638    -0.03400
C686        C  0.59635684  0.89410282  0.15914544     0.08800
C687        C  0.60734547  0.89767152  0.16489968     0.02600
H688        H  0.58600307  0.87637128  0.16109653     0.10200
H689        H  0.61220729  0.90646221  0.16378897     0.09300
N690        N  0.60787794  0.84665725  0.19257349    -0.34500
N691        N  0.61765947  0.84579231  0.20006819    -0.26700
C692        C  0.61706234  0.83496819  0.20642982    -0.01900
C693        C  0.60641745  0.82873140  0.20274514     0.06700
C694        C  0.60077018  0.83635935  0.19398046     0.04800
H695        H  0.62374897  0.83200579  0.21340577     0.09900
H696        H  0.59203312  0.83469366  0.18919098     0.08700
N697        N  0.57507359  0.72747967  0.25957210    -0.25700
N698        N  0.56408883  0.72237832  0.26205706    -0.33500
C699        C  0.56582654  0.71164201  0.26834334     0.02700
C700        C  0.57848069  0.70992548  0.26990235     0.08700
C701        C  0.58411610  0.72008689  0.26425961    -0.04400
H702        H  0.55840982  0.70555560  0.27153232     0.09300
H703        H  0.59401935  0.72194988  0.26355345     0.10500
Cu704      Cu  0.54713059  0.73018011  0.25710170     0.44200
Cu705      Cu  0.57717432  0.74418836  0.24976700     0.42000
Cu706      Cu  0.54818941  0.75935573  0.24049682     0.43900
N707        N  0.53133370  0.74010382  0.25212653    -0.33100
N708        N  0.53169016  0.75079764  0.24596541    -0.27300
C709        C  0.51994063  0.75481013  0.24408169    -0.03400
C710        C  0.51182276  0.74627103  0.24938666     0.08800
C711        C  0.51937044  0.73704260  0.25440337     0.02600
H712        H  0.51748965  0.76330417  0.23920195     0.10200
H713        H  0.51645282  0.72863918  0.25919377     0.09300
N714        N  0.56580328  0.76619269  0.23620770    -0.34500
N715        N  0.57639295  0.76076318  0.23954975    -0.26700
C716        C  0.58602175  0.76769828  0.23531571    -0.01900
C717        C  0.58118464  0.77790310  0.22905018     0.06700
C718        C  0.56839396  0.77668260  0.22979157     0.04800
H719        H  0.59577238  0.76549834  0.23674829     0.09900
H720        H  0.56145732  0.78298115  0.22600877     0.08700
N721        N  0.72659840  0.91360399  0.24742343    -0.25700
N722        N  0.72135057  0.92451507  0.24491150    -0.33500
C723        C  0.71076112  0.92261496  0.23843933     0.02700
C724        C  0.70926485  0.90994468  0.23677289     0.08700
C725        C  0.71942796  0.90445268  0.24256246    -0.04400
H726        H  0.70465589  0.92994851  0.23511709     0.09300
H727        H  0.72150566  0.89458294  0.24313770     0.10500
Cu728      Cu  0.72871286  0.94169344  0.24999134     0.44200
Cu729      Cu  0.74342319  0.91181841  0.25715652     0.42000
Cu730      Cu  0.75800508  0.94128308  0.26612126     0.43900
N731        N  0.73778738  0.95779421  0.25578340    -0.33100
N732        N  0.74852150  0.95762233  0.26186254    -0.27300
C733        C  0.75192050  0.96942316  0.26451284    -0.03400
C734        C  0.74295668  0.97742079  0.25977662     0.08800
C735        C  0.73410185  0.96971956  0.25430165     0.02600
H736        H  0.76034968  0.97199724  0.26943425     0.10200
H737        H  0.72556603  0.97251014  0.24969066     0.09300
N738        N  0.76570010  0.92387792  0.26972426    -0.34500
N739        N  0.76044916  0.91312445  0.26660595    -0.26700
C740        C  0.76793443  0.90372145  0.27037329    -0.01900
C741        C  0.77831048  0.90887238  0.27608388     0.06700
C742        C  0.77661569  0.92161922  0.27551108     0.04800
H743        H  0.76599706  0.89390643  0.26898588     0.09900
H744        H  0.78286374  0.92875337  0.27900294     0.08700
N745        N  0.72903543  0.57720143  0.26857572    -0.25700
N746        N  0.72348237  0.56655834  0.27156144    -0.33500
C747        C  0.71292438  0.56900251  0.27788526     0.02700
C748        C  0.71175119  0.58176203  0.27896468     0.08700
C749        C  0.72207814  0.58674002  0.27297232    -0.04400
H750        H  0.70656786  0.56197714  0.28141867     0.09300
H751        H  0.72435758  0.59652068  0.27186917     0.10500
Cu752      Cu  0.73026855  0.54901817  0.26715318     0.44200
Cu753      Cu  0.74587810  0.57801779  0.25868794     0.42000
Cu754      Cu  0.75935886  0.54756281  0.25098622     0.43900
N755        N  0.73867816  0.53236660  0.26216043    -0.33100
N756        N  0.74939006  0.53182735  0.25607624    -0.27300
C757        C  0.75235533  0.51979906  0.25405277    -0.03400
C758        C  0.74302911  0.51242119  0.25916696     0.08800
C759        C  0.73455351  0.52069202  0.26427454     0.02600
H760        H  0.76073796  0.51671746  0.24935015     0.10200
H761        H  0.72599333  0.51840173  0.26910970     0.09300
N762        N  0.76751300  0.56447882  0.24646075    -0.34500
N763        N  0.76273021  0.57556958  0.24909706    -0.26700
C764        C  0.77045370  0.58445991  0.24459646    -0.01900
C765        C  0.78047050  0.57860030  0.23892869     0.06700
C766        C  0.77832595  0.56599401  0.24027372     0.04800
H767        H  0.76886699  0.59440550  0.24536177     0.09900
H768        H  0.78414813  0.55844377  0.23694185     0.08700
N769        N  0.79208277  0.11357547  0.35606462    -0.25700
N770        N  0.79899053  0.10337674  0.35697039    -0.33500
C771        C  0.79643038  0.09588741  0.34717080     0.02700
C772        C  0.78752683  0.10173806  0.33984444     0.08700
C773        C  0.78498280  0.11288466  0.34573237    -0.04400
H774        H  0.80062583  0.08684050  0.34558571     0.09300
H775        H  0.77834769  0.11992774  0.34282458     0.10500
Cu776      Cu  0.81129836  0.10034379  0.37178483     0.44200
Cu777      Cu  0.79219586  0.12792045  0.36900478     0.42000
Cu778      Cu  0.81267118  0.12569524  0.39525852     0.43900
N779        N  0.82259375  0.10014366  0.38767967    -0.33100
N780        N  0.82314259  0.10926336  0.39602923    -0.27300
C781        C  0.83124690  0.10601532  0.40509218    -0.03400
C782        C  0.83597221  0.09435233  0.40231637     0.08800
C783        C  0.83032681  0.09088287  0.39125473     0.02600
H784        H  0.83343359  0.11168768  0.41315878     0.10200
H785        H  0.83166330  0.08223863  0.38620725     0.09300
N786        N  0.80057214  0.14074277  0.39254462    -0.34500
N787        N  0.79301285  0.14142325  0.38280220    -0.26700
C788        C  0.78619330  0.15194076  0.38355807    -0.01900
C789        C  0.78962525  0.15819700  0.39427861     0.06700
C790        C  0.79875078  0.15087818  0.39979590     0.04800
H791        H  0.77921699  0.15477538  0.37681853     0.09900
H792        H  0.80363804  0.15273017  0.40844231     0.08700
N793        N  0.68643252  0.12068572  0.15503421    -0.25700
N794        N  0.67952841  0.11050176  0.15384566    -0.33500
C795        C  0.68181967  0.10285034  0.16358105     0.02700
C796        C  0.69054591  0.10852844  0.17120932     0.08700
C797        C  0.69328253  0.11979308  0.16554597    -0.04400
H798        H  0.67766917  0.09372162  0.16483855     0.09300
H799        H  0.69999378  0.12668665  0.16863883     0.10500
Cu800      Cu  0.66786170  0.10725669  0.13861746     0.44200
Cu801      Cu  0.68694127  0.13492830  0.14183546     0.42000
Cu802      Cu  0.66886522  0.13058674  0.11364952     0.43900
N803        N  0.65746084  0.10608223  0.12221159    -0.33100
N804        N  0.65785064  0.11450733  0.11314917    -0.27300
C805        C  0.65032161  0.11077401  0.10378367    -0.03400
C806        C  0.64497731  0.09951216  0.10713175     0.08800
C807        C  0.64967671  0.09678850  0.11883541     0.02600
H808        H  0.64899746  0.11579867  0.09511175     0.10200
H809        H  0.64775566  0.08857254  0.12440721     0.09300
N810        N  0.68063407  0.14585217  0.11658013    -0.34500
N811        N  0.68714021  0.14743215  0.12697015    -0.26700
C812        C  0.69393607  0.15797210  0.12600257    -0.01900
C813        C  0.69159264  0.16326993  0.11447852     0.06700
C814        C  0.68314099  0.15537812  0.10871401     0.04800
H815        H  0.70023893  0.16141947  0.13310799     0.09900
H816        H  0.67920536  0.15640139  0.09946313     0.08700
N817        N  0.69358660  0.37642353  0.35572012    -0.25700
N818        N  0.68634702  0.38636803  0.35685632    -0.33500
C819        C  0.68833784  0.39398527  0.34701012     0.02700
C820        C  0.69722059  0.38850410  0.33940376     0.08700
C821        C  0.70035222  0.37742910  0.34518165    -0.04400
H822        H  0.68377602  0.40288421  0.34558850     0.09300
H823        H  0.70714798  0.37064779  0.34204654     0.10500
Cu824      Cu  0.67443364  0.38911270  0.37204425     0.44200
Cu825      Cu  0.69430109  0.36200211  0.36862276     0.42000
Cu826      Cu  0.67489349  0.36470305  0.39601398     0.43900
N827        N  0.66389648  0.38968650  0.38844408    -0.33100
N828        N  0.66408184  0.38085755  0.39712169    -0.27300
C829        C  0.65627624  0.38410385  0.40644232    -0.03400
C830        C  0.65096140  0.39547799  0.40347695     0.08800
C831        C  0.65596461  0.39876341  0.39203804     0.02600
H832        H  0.65456627  0.37855778  0.41472228     0.10200
H833        H  0.65395994  0.40710138  0.38668723     0.09300
N834        N  0.68679104  0.34963723  0.39279314    -0.34500
N835        N  0.69389088  0.34873224  0.38272089    -0.26700
C836        C  0.70057842  0.33811853  0.38333869    -0.01900
C837        C  0.69752657  0.33205995  0.39429805     0.06700
C838        C  0.68878460  0.33957496  0.40010663     0.04800
H839        H  0.70720429  0.33508336  0.37634275     0.09900
H840        H  0.68425925  0.33790341  0.40898690     0.08700
N841        N  0.79593343  0.34603580  0.12369459    -0.25700
N842        N  0.80277159  0.34731349  0.11348166    -0.33500
C843        C  0.80048856  0.33759405  0.10581838     0.02700
C844        C  0.79183503  0.32989030  0.11154568     0.08700
C845        C  0.78913997  0.33549399  0.12282938    -0.04400
H846        H  0.80468702  0.33632975  0.09671719     0.09300
H847        H  0.78257914  0.33227460  0.12981521     0.10500
Cu848      Cu  0.81467427  0.36243407  0.11061210     0.44200
Cu849      Cu  0.79577055  0.35893056  0.13815474     0.42000
Cu850      Cu  0.81597665  0.38572094  0.13592601     0.43900
N851        N  0.82609525  0.37818375  0.11050611    -0.33100
N852        N  0.82666522  0.38649612  0.11965113    -0.27300
C853        C  0.83489779  0.39547558  0.11648504    -0.03400
C854        C  0.83967549  0.39266215  0.10484689     0.08800
C855        C  0.83393125  0.38168456  0.10130563     0.02600
H856        H  0.83709305  0.40353369  0.12216539     0.10200
H857        H  0.83523625  0.37666693  0.09263751     0.09300
N858        N  0.80375079  0.38280370  0.15082128    -0.34500
N859        N  0.79635072  0.37293025  0.15153566    -0.26700
C860        C  0.78940640  0.37370536  0.16198232    -0.01900
C861        C  0.79259225  0.38456046  0.16814081     0.06700
C862        C  0.80169581  0.39014295  0.16084549     0.04800
H863        H  0.78247951  0.36690835  0.16481324     0.09900
H864        H  0.80638872  0.39891469  0.16261723     0.08700
N865        N  0.75602176  0.41288518  0.23721370    -0.25700
N866        N  0.75912932  0.42355580  0.23177288    -0.33500
C867        C  0.76520596  0.42115939  0.22105343     0.02700
C868        C  0.76600045  0.40840125  0.21963652     0.08700
C869        C  0.76010127  0.40337693  0.23001131    -0.04400
H870        H  0.76876068  0.42821986  0.21474462     0.09300
H871        H  0.75882626  0.39358360  0.23214401     0.10500
Cu872      Cu  0.75516868  0.44108534  0.23888442     0.44200
Cu873      Cu  0.74624716  0.41200661  0.25417619     0.42000
Cu874      Cu  0.73888093  0.44233217  0.26799703     0.43900
N875        N  0.75058191  0.45767358  0.24766444    -0.33100
N876        N  0.74447197  0.45811717  0.25837106    -0.27300
C877        C  0.74284658  0.47011426  0.26167056    -0.03400
C878        C  0.74824966  0.47758324  0.25257931     0.08800
C879        C  0.75310242  0.46938774  0.24387670     0.02600
H880        H  0.73824966  0.47310264  0.27014614     0.10200
H881        H  0.75808389  0.47175698  0.23541881     0.09300
N882        N  0.73386293  0.42540587  0.27584765    -0.34500
N883        N  0.73641092  0.41434199  0.27095676    -0.26700
C884        C  0.73157090  0.40542637  0.27845499    -0.01900
C885        C  0.72576089  0.41123802  0.28843102     0.06700
C886        C  0.72739652  0.42384940  0.28649975     0.04800
H887        H  0.73219791  0.39549246  0.27674292     0.09900
H888        H  0.72408222  0.43137640  0.29236259     0.08700
N889        N  0.75264188  0.26246643  0.08328539    -0.25700
N890        N  0.75571080  0.26728489  0.07230801    -0.33500
C891        C  0.76235323  0.27780250  0.07409720     0.02700
C892        C  0.76354435  0.27969557  0.08677927     0.08700
C893        C  0.75730199  0.26984557  0.09236723    -0.04400
H894        H  0.76596536  0.28367018  0.06669297     0.09300
H895        H  0.75613837  0.26821260  0.10227241     0.10500
Cu896      Cu  0.75063914  0.25964541  0.05527260     0.44200
Cu897      Cu  0.74193128  0.24621474  0.08532758     0.42000
Cu898      Cu  0.73075304  0.23257303  0.05629441     0.43900
N899        N  0.74415836  0.25063426  0.03944058    -0.33100
N900        N  0.73669262  0.24081013  0.03979808    -0.27300
C901        C  0.73397327  0.23732052  0.02804049    -0.03400
C902        C  0.74009835  0.24527362  0.01990579     0.08800
C903        C  0.74646141  0.25362905  0.02745764     0.02600
H904        H  0.72801049  0.22954726  0.02559740     0.10200
H905        H  0.75219237  0.26141519  0.02453324     0.09300
N906        N  0.72653958  0.22546870  0.07382177    -0.34500
N907        N  0.73062023  0.23026593  0.08446097    -0.26700
C908        C  0.72636551  0.22316644  0.09398554    -0.01900
C909        C  0.71931083  0.21352866  0.08902411     0.06700
C910        C  0.71962267  0.21526491  0.07626625     0.04800
H911        H  0.72836064  0.22482917  0.10374706     0.09900
H912        H  0.71527808  0.20945079  0.06923798     0.08700
N913        N  0.74767449  0.07591969  0.27176617    -0.25700
N914        N  0.75025011  0.06491372  0.27678957    -0.33500
C915        C  0.75652077  0.06663032  0.28753261     0.02700
C916        C  0.75798340  0.07928178  0.28936764     0.08700
C917        C  0.75229157  0.08495224  0.27923850    -0.04400
H918        H  0.75982357  0.05918891  0.29352441     0.09300
H919        H  0.75158751  0.09486499  0.27740718     0.10500
Cu920      Cu  0.74542545  0.04786882  0.26896994     0.44200
Cu921      Cu  0.73801533  0.07796713  0.25492583     0.42000
Cu922      Cu  0.72898342  0.04866020  0.23988011     0.43900
N923        N  0.73987509  0.03186325  0.25959337    -0.33100
N924        N  0.73368049  0.03215850  0.24892412    -0.27300
C925        C  0.73125558  0.02038093  0.24528130    -0.03400
C926        C  0.73626294  0.01227873  0.25401453     0.08800
C927        C  0.74165719  0.01988923  0.26299172     0.02600
H928        H  0.72630807  0.01789494  0.23683951     0.10200
H929        H  0.74642037  0.01700026  0.27141604     0.09300
N930        N  0.72499225  0.06623607  0.23270020    -0.34500
N931        N  0.72818224  0.07689526  0.23809746    -0.26700
C932        C  0.72405713  0.08643744  0.23097734    -0.01900
C933        C  0.71803430  0.08149245  0.22068066     0.06700
C934        C  0.71879168  0.06870793  0.22204916     0.04800
H935        H  0.72536009  0.09621623  0.23313767     0.09900
H936        H  0.71510811  0.06169452  0.21577869     0.08700
N937        N  0.75421099  0.22879436  0.42011910    -0.25700
N938        N  0.75801735  0.22425483  0.43097831    -0.33500
C939        C  0.76421239  0.21351261  0.42906849     0.02700
C940        C  0.76434839  0.21112594  0.41642950     0.08700
C941        C  0.75793642  0.22095856  0.41096944    -0.04400
H942        H  0.76820303  0.20779452  0.43638913     0.09300
H943        H  0.75603141  0.22226749  0.40113369     0.10500
Cu944      Cu  0.75445620  0.23238939  0.44813303     0.44200
Cu945      Cu  0.74396402  0.24542651  0.41858753     0.42000
Cu946      Cu  0.73650951  0.26037286  0.44855911     0.43900
N947        N  0.74937946  0.24133408  0.46447520    -0.33100
N948        N  0.74258964  0.25161903  0.46467073    -0.27300
C949        C  0.74065840  0.25503192  0.47660556    -0.03400
C950        C  0.74657062  0.24643615  0.48427611     0.08800
C951        C  0.75201900  0.23792224  0.47626750     0.02600
H952        H  0.73543619  0.26319672  0.47940947     0.10200
H953        H  0.75744827  0.22980530  0.47882189     0.09300
N954        N  0.73160229  0.26755515  0.43130023    -0.34500
N955        N  0.73416933  0.26229826  0.42040179    -0.26700
C956        C  0.72961014  0.26965293  0.41122285    -0.01900
C957        C  0.72396961  0.27991290  0.41669380     0.06700
C958        C  0.72541145  0.27829656  0.42936932     0.04800
H959        H  0.73041324  0.26771121  0.40134152     0.09900
H960        H  0.72225283  0.28449907  0.43668891     0.08700
N961        N  0.61722179  0.19317171  0.85475895    -0.25700
N962        N  0.60773754  0.18529564  0.85558217    -0.33500
C963        C  0.60075785  0.18625467  0.84514950     0.02700
C964        C  0.60619263  0.19512721  0.83748435     0.08700
C965        C  0.61656262  0.19933873  0.84383301    -0.04400
H966        H  0.59225208  0.18108421  0.84341307     0.09300
H967        H  0.62301617  0.20653621  0.84087054     0.10500
Cu968      Cu  0.60461904  0.17414800  0.87122467     0.44200
Cu969      Cu  0.63034608  0.19563102  0.86870573     0.42000
Cu970      Cu  0.62663305  0.17772135  0.89716841     0.43900
N971        N  0.60321391  0.16456981  0.88810805    -0.33100
N972        N  0.61111293  0.16584733  0.89754518    -0.27300
C973        C  0.60733253  0.15845647  0.90703505    -0.03400
C974        C  0.59659504  0.15228824  0.90335391     0.08800
C975        C  0.59424517  0.15635991  0.89134581     0.02600
H976        H  0.61202407  0.15768214  0.91595213     0.10200
H977        H  0.58654636  0.15362141  0.88540446     0.09300
N978        N  0.64115647  0.19045119  0.89419232    -0.34500
N979        N  0.64239356  0.19695414  0.88374381    -0.26700
C980        C  0.65245933  0.20441589  0.88464962    -0.01900
C981        C  0.65782313  0.20252099  0.89619888     0.06700
C982        C  0.65047308  0.19363309  0.90204789     0.04800
H983        H  0.65557767  0.21079465  0.87744564     0.09900
H984        H  0.65174014  0.18982701  0.91132450     0.08700
N985        N  0.87836057  0.29002389  0.85577804    -0.25700
N986        N  0.88865663  0.29674482  0.85705558    -0.33500
C987        C  0.89651169  0.29393382  0.84761771     0.02700
C988        C  0.89080573  0.28506208  0.84015312     0.08700
C989        C  0.87936106  0.28279691  0.84557022    -0.04400
H990        H  0.90560736  0.29811273  0.84624280     0.09300
H991        H  0.87221207  0.27645300  0.84228678     0.10500
Cu992      Cu  0.89117951  0.30959741  0.87151127     0.44200
Cu993      Cu  0.86314504  0.29099963  0.86763620     0.42000
Cu994      Cu  0.86430279  0.31311457  0.89258408     0.43900
N995        N  0.89064257  0.32179926  0.88672545    -0.33100
N996        N  0.88088513  0.32306822  0.89422578    -0.27300
C997        C  0.88357461  0.33158265  0.90306489    -0.03400
C998        C  0.89555089  0.33585759  0.90104055     0.08800
C999        C  0.89979671  0.32950623  0.89064158     0.02600
H1000       H  0.87728469  0.33438090  0.91045660     0.10200
H1001       H  0.90886338  0.33037342  0.88626976     0.09300
N1002       N  0.84906996  0.30149380  0.88949585    -0.34500
N1003       N  0.84872879  0.29328946  0.88028321    -0.26700
C1004       C  0.83790134  0.28693626  0.88080115    -0.01900
C1005       C  0.83113101  0.29138796  0.89080717     0.06700
C1006       C  0.83843574  0.30058658  0.89615408     0.04800
H1007       H  0.83523768  0.27955409  0.87444093     0.09900
H1008       H  0.83626952  0.30609777  0.90433480     0.08700
N1009       N  0.75987654  0.26093079  0.92024052    -0.25700
N1010       N  0.76587459  0.26355908  0.93073388    -0.33500
C1011       C  0.77688422  0.26891743  0.92796418     0.02700
C1012       C  0.77787393  0.26971174  0.91516173     0.08700
C1013       C  0.76698195  0.26458203  0.91049256    -0.04400
H1014       H  0.78372632  0.27186637  0.93479128     0.09300
H1015       H  0.76447168  0.26343267  0.90077557     0.10500
Cu1016     Cu  0.75932002  0.25959541  0.94850533     0.44200
Cu1017     Cu  0.74246919  0.25212925  0.91967970     0.42000
Cu1018     Cu  0.72952375  0.24439629  0.94997750     0.43900
N1019       N  0.75084649  0.25453903  0.96514975    -0.33100
N1020       N  0.73991133  0.24884619  0.96564086    -0.27300
C1021       C  0.73690065  0.24672131  0.97764502    -0.03400
C1022       C  0.74641792  0.25134637  0.98508338     0.08800
C1023       C  0.75507798  0.25627058  0.97685399     0.02600
H1024       H  0.72833185  0.24231452  0.98066357     0.10200
H1025       H  0.76379960  0.26078402  0.97919685     0.09300
N1026       N  0.72080791  0.24017004  0.93326079    -0.34500
N1027       N  0.72545649  0.24288744  0.92212905    -0.26700
C1028       C  0.71763469  0.23847410  0.91329848    -0.01900
C1029       C  0.70766989  0.23276582  0.91923473     0.06700
C1030       C  0.70996098  0.23400290  0.93184036     0.04800
H1031       H  0.71917366  0.23922789  0.90333882     0.09900
H1032       H  0.70427155  0.23052461  0.93944099     0.08700
N1033       N  0.64400322  0.29951617  0.62760088    -0.25700
N1034       N  0.64329768  0.30779292  0.61844067    -0.33500
C1035       C  0.65375743  0.30711161  0.61149280     0.02700
C1036       C  0.66135059  0.29800981  0.61657956     0.08700
C1037       C  0.65491753  0.29335899  0.62673807    -0.04400
H1038       H  0.65552321  0.31258064  0.60317341     0.09300
H1039       H  0.65777835  0.28582569  0.63284339     0.10500
Cu1040     Cu  0.62779041  0.31906305  0.61538487     0.44200
Cu1041     Cu  0.62980760  0.29645097  0.64042494     0.42000
Cu1042     Cu  0.60150221  0.31472047  0.63637724     0.43900
N1043       N  0.61104461  0.32874378  0.61373752    -0.33100
N1044       N  0.60142071  0.32716267  0.62134009    -0.27300
C1045       C  0.59199271  0.33458750  0.61753990    -0.03400
C1046       C  0.59591069  0.34110142  0.60708887     0.08800
C1047       C  0.60799866  0.33719397  0.60492213     0.02600
H1048       H  0.58293416  0.33509913  0.62198021     0.10200
H1049       H  0.61409311  0.34015202  0.59741860     0.09300
N1050       N  0.60401774  0.30160233  0.65060520    -0.34500
N1051       N  0.61434792  0.29496547  0.65200800    -0.26700
C1052       C  0.61310598  0.28745423  0.66202141    -0.01900
C1053       C  0.60146780  0.28946718  0.66715307     0.06700
C1054       C  0.59592355  0.29846919  0.65973239     0.04800
H1055       H  0.62019439  0.28106664  0.66534819     0.09900
H1056       H  0.58673936  0.30249425  0.66090415     0.08700
N1057       N  0.87020454  0.19420364  0.64919713    -0.25700
N1058       N  0.87960218  0.18621490  0.64867425    -0.33500
C1059       C  0.88654528  0.18737088  0.65909617     0.02700
C1060       C  0.88120300  0.19649865  0.66646511     0.08700
C1061       C  0.87089906  0.20065893  0.65995019    -0.04400
H1062       H  0.89493995  0.18210429  0.66105032     0.09300
H1063       H  0.86448676  0.20795702  0.66270738     0.10500
Cu1064     Cu  0.88268603  0.17454818  0.63351813     0.44200
Cu1065     Cu  0.85714189  0.19627790  0.63505610     0.42000
Cu1066     Cu  0.86137707  0.17806063  0.60695188     0.43900
N1067       N  0.88411009  0.16448913  0.61701757    -0.33100
N1068       N  0.87649700  0.16576699  0.60734923    -0.27300
C1069       C  0.88020381  0.15795842  0.59820838    -0.03400
C1070       C  0.89058843  0.15153239  0.60237424     0.08800
C1071       C  0.89282294  0.15586641  0.61428781     0.02600
H1072       H  0.87568916  0.15706113  0.58921363     0.10200
H1073       H  0.90025823  0.15302177  0.62051074     0.09300
N1074       N  0.84679971  0.19075733  0.60941396    -0.34500
N1075       N  0.84529784  0.19732566  0.61976917    -0.26700
C1076       C  0.83503624  0.20448201  0.61866211    -0.01900
C1077       C  0.82983744  0.20232143  0.60707771     0.06700
C1078       C  0.83748635  0.19359056  0.60142011     0.04800
H1079       H  0.83159132  0.21073509  0.62580662     0.09900
H1080       H  0.83632856  0.18952931  0.59224593     0.08700
N1081       N  0.72836145  0.26203949  0.58410328    -0.25700
N1082       N  0.72295297  0.26597841  0.57369333    -0.33500
C1083       C  0.71270406  0.27260343  0.57661566     0.02700
C1084       C  0.71161640  0.27286889  0.58943484     0.08700
C1085       C  0.72163647  0.26609434  0.59394305    -0.04400
H1086       H  0.70645621  0.27681536  0.56987777     0.09300
H1087       H  0.72383232  0.26416940  0.60361593     0.10500
Cu1088     Cu  0.72930376  0.26213685  0.55583174     0.44200
Cu1089     Cu  0.74456516  0.25117500  0.58447981     0.42000
Cu1090     Cu  0.75637698  0.24243754  0.55411568     0.43900
N1091       N  0.73719569  0.25646912  0.53911795    -0.33100
N1092       N  0.74705234  0.24908288  0.53854238    -0.27300
C1093       C  0.74983641  0.24688573  0.52650604    -0.03400
C1094       C  0.74129690  0.25322082  0.51913047     0.08800
C1095       C  0.73345409  0.25922857  0.52743765     0.02600
H1096       H  0.75756531  0.24117570  0.52343793     0.10200
H1097       H  0.72555973  0.26509035  0.52516574     0.09300
N1098       N  0.76482198  0.23723605  0.57071249    -0.34500
N1099       N  0.76064161  0.24042557  0.58189405    -0.26700
C1100       C  0.76850861  0.23585639  0.59061444    -0.01900
C1101       C  0.77800354  0.22952885  0.58455294     0.06700
C1102       C  0.77539234  0.23058485  0.57198778     0.04800
H1103       H  0.76747935  0.23718869  0.60057664     0.09900
H1104       H  0.78086483  0.22696317  0.56430787     0.08700
N1105       N  0.91436288  0.24692886  0.77043594    -0.25700
N1106       N  0.92554821  0.24897956  0.77525817    -0.33500
C1107       C  0.92434833  0.25515110  0.78611034     0.02700
C1108       C  0.91182198  0.25708537  0.78824587     0.08700
C1109       C  0.90569282  0.25177957  0.77817581    -0.04400
H1110       H  0.93204779  0.25797588  0.79201363     0.09300
H1111       H  0.89572138  0.25143991  0.77660010     0.10500
Cu1112     Cu  0.94202642  0.24333622  0.76706463     0.44200
Cu1113     Cu  0.91179186  0.23757859  0.75350807     0.42000
Cu1114     Cu  0.94048692  0.22671250  0.73808721     0.43900
N1115       N  0.95760242  0.23722366  0.75756129    -0.33100
N1116       N  0.95713343  0.23100089  0.74692842    -0.27300
C1117       C  0.96885132  0.22856653  0.74311503    -0.03400
C1118       C  0.97704620  0.23357939  0.75174913     0.08800
C1119       C  0.96957945  0.23897631  0.76080849     0.02600
H1120       H  0.97122679  0.22370440  0.73459623     0.10200
H1121       H  0.97253427  0.24386557  0.76912699     0.09300
N1122       N  0.92267024  0.22428011  0.73097036    -0.34500
N1123       N  0.91227392  0.22816634  0.73642544    -0.26700
C1124       C  0.90249134  0.22514126  0.72909862    -0.01900
C1125       C  0.90702321  0.21910540  0.71863469     0.06700
C1126       C  0.91979271  0.21871982  0.72009252     0.04800
H1127       H  0.89284434  0.22724412  0.73120921     0.09900
H1128       H  0.92653214  0.21476042  0.71369296     0.08700
N1129       N  0.57649404  0.23024235  0.76852769    -0.25700
N1130       N  0.56598305  0.22685803  0.77410321    -0.33500
C1131       C  0.56869791  0.22083466  0.78478036     0.02700
C1132       C  0.58148745  0.22037226  0.78598376     0.08700
C1133       C  0.58620650  0.22640698  0.77557348    -0.04400
H1134       H  0.56183786  0.21711004  0.79120706     0.09300
H1135       H  0.59592872  0.22795000  0.77330828     0.10500
Cu1136     Cu  0.54826155  0.23058212  0.76737178     0.44200
Cu1137     Cu  0.57706919  0.24015605  0.75171152     0.42000
Cu1138     Cu  0.54687257  0.24976320  0.73987093     0.43900
N1139       N  0.53166414  0.23624922  0.75927312    -0.33100
N1140       N  0.53119633  0.24352656  0.74931070    -0.27300
C1141       C  0.51919560  0.24580738  0.74645218    -0.03400
C1142       C  0.51174227  0.23963133  0.75504603     0.08800
C1143       C  0.51995495  0.23362380  0.76299660     0.02600
H1144       H  0.51619496  0.25141311  0.73860559     0.10200
H1145       H  0.51760195  0.22784966  0.77094533     0.09300
N1146       N  0.56360455  0.25423093  0.73126823    -0.34500
N1147       N  0.57468054  0.25065370  0.73541939    -0.26700
C1148       C  0.58351959  0.25489473  0.72750300    -0.01900
C1149       C  0.57765669  0.26141724  0.71800771     0.06700
C1150       C  0.56507635  0.26082082  0.72066505     0.04800
H1151       H  0.59343747  0.25329996  0.72856009     0.09900
H1152       H  0.55752104  0.26478197  0.71524821     0.08700
N1153       N  0.14239903  0.37164364  0.80622970    -0.25700
N1154       N  0.14148787  0.38155023  0.81354510    -0.33500
C1155       C  0.15151472  0.38892990  0.81170663     0.02700
C1156       C  0.15903290  0.38334720  0.80283753     0.08700
C1157       C  0.15301298  0.37244032  0.79954833    -0.04400
H1158       H  0.15313966  0.39772567  0.81639825     0.09300
H1159       H  0.15604478  0.36563384  0.79273154     0.10500
Cu1160     Cu  0.12652802  0.38448891  0.82554067     0.44200
Cu1161     Cu  0.12909482  0.35756210  0.80549467     0.42000
Cu1162     Cu  0.10247765  0.36007274  0.82597107     0.43900
N1163       N  0.11071428  0.38495435  0.83677007    -0.33100
N1164       N  0.10203589  0.37613519  0.83700466    -0.27300
C1165       C  0.09308428  0.37945824  0.84519655    -0.03400
C1166       C  0.09632555  0.39085506  0.85029554     0.08800
C1167       C  0.10750871  0.39408733  0.84477988     0.02600
H1168       H  0.08478808  0.37403844  0.84718049     0.10200
H1169       H  0.11288151  0.40249647  0.84637283     0.09300
N1170       N  0.10505809  0.34524932  0.81358282    -0.34500
N1171       N  0.11483803  0.34443766  0.80607486    -0.26700
C1172       C  0.11381493  0.33405009  0.79908341    -0.01900
C1173       C  0.10289453  0.32803583  0.80234995     0.06700
C1174       C  0.09753516  0.33534907  0.81155031     0.04800
H1175       H  0.12049272  0.33115720  0.79207660     0.09900
H1176       H  0.08879035  0.33367473  0.81632608     0.08700
N1177       N  0.11413836  0.14079970  0.70357392    -0.25700
N1178       N  0.10435894  0.14001280  0.69607918    -0.33500
C1179       C  0.09711951  0.15016096  0.69774819     0.02700
C1180       C  0.10268247  0.15760957  0.70670452     0.08700
C1181       C  0.11341755  0.15142913  0.71021225    -0.04400
H1182       H  0.08842065  0.15189744  0.69291517     0.09300
H1183       H  0.12014220  0.15434870  0.71716606     0.10500
Cu1184     Cu  0.10146205  0.12489807  0.68425904     0.44200
Cu1185     Cu  0.12783253  0.12722877  0.70461779     0.42000
Cu1186     Cu  0.12530211  0.10018111  0.68455243     0.43900
N1187       N  0.10071023  0.10881721  0.67342384    -0.33100
N1188       N  0.10930509  0.09992347  0.67342715    -0.27300
C1189       C  0.10583284  0.09092785  0.66534592    -0.03400
C1190       C  0.09456970  0.09436109  0.66008071     0.08800
C1191       C  0.09157479  0.10570242  0.66537445     0.02600
H1192       H  0.11109916  0.08251365  0.66348919     0.10200
H1193       H  0.08336590  0.11129273  0.66353710     0.09300
N1194       N  0.13982047  0.10281522  0.69727757    -0.34500
N1195       N  0.14058707  0.11273536  0.70459767    -0.26700
C1196       C  0.15072952  0.11171841  0.71192137    -0.01900
C1197       C  0.15663456  0.10065752  0.70908048     0.06700
C1198       C  0.14952830  0.09519528  0.69977537     0.04800
H1199       H  0.15353377  0.11851237  0.71885229     0.09900
H1200       H  0.15121305  0.08633330  0.69523784     0.08700
N1201       N  0.37416905  0.14327570  0.80262820    -0.25700
N1202       N  0.38475848  0.14161478  0.80878478    -0.33500
C1203       C  0.39264467  0.15099905  0.80589024     0.02700
C1204       C  0.38668043  0.15886114  0.79755888     0.08700
C1205       C  0.37502460  0.15371977  0.79567834    -0.04400
H1206       H  0.40197818  0.15203278  0.80960994     0.09300
H1207       H  0.36768597  0.15729257  0.78971849     0.10500
Cu1208     Cu  0.38781606  0.12673059  0.82100220     0.44200
Cu1209     Cu  0.35895074  0.13134242  0.80380564     0.42000
Cu1210     Cu  0.36163686  0.10500490  0.82444569     0.43900
N1211       N  0.38789662  0.11135676  0.83300773    -0.33100
N1212       N  0.37836236  0.10357237  0.83428856    -0.27300
C1213       C  0.38137202  0.09474391  0.84273628    -0.03400
C1214       C  0.39332858  0.09707907  0.84694513     0.08800
C1215       C  0.39721736  0.10765181  0.84062062     0.02600
H1216       H  0.37531191  0.08715748  0.84554796     0.10200
H1217       H  0.40615214  0.11229771  0.84145675     0.09300
N1218       N  0.34603770  0.10818622  0.81325188    -0.34500
N1219       N  0.34509204  0.11793586  0.80571320    -0.26700
C1220       C  0.33425250  0.11722624  0.79939294    -0.01900
C1221       C  0.32809497  0.10653475  0.80314224     0.06700
C1222       C  0.33579278  0.10098770  0.81191331     0.04800
H1223       H  0.33123931  0.12384735  0.79237200     0.09900
H1224       H  0.33421552  0.09224913  0.81674545     0.08700
N1225       N  0.34533433  0.37507612  0.70334491    -0.25700
N1226       N  0.34680837  0.38559870  0.69701973    -0.33500
C1227       C  0.33732078  0.39337595  0.69985649     0.02700
C1228       C  0.32959318  0.38738978  0.70832867     0.08700
C1229       C  0.33493191  0.37585006  0.71034098    -0.04400
H1230       H  0.33622985  0.40271526  0.69615673     0.09300
H1231       H  0.33161739  0.36860075  0.71656638     0.10500
Cu1232     Cu  0.36194102  0.38875302  0.68509620     0.44200
Cu1233     Cu  0.35770108  0.36023837  0.70262455     0.42000
Cu1234     Cu  0.38468247  0.36323237  0.68273459     0.43900
N1235       N  0.37789665  0.38929250  0.67386410    -0.33100
N1236       N  0.38605750  0.38004160  0.67297481    -0.27300
C1237       C  0.39519325  0.38340781  0.66499469    -0.03400
C1238       C  0.39266277  0.39530326  0.66069199     0.08800
C1239       C  0.38166213  0.39877311  0.66646894     0.02600
H1240       H  0.40310558  0.37762766  0.66255217     0.10200
H1241       H  0.37675627  0.40753753  0.66540141     0.09300
N1242       N  0.38131007  0.34766121  0.69394928    -0.34500
N1243       N  0.37136942  0.34664787  0.70121683    -0.26700
C1244       C  0.37196796  0.33583182  0.70759236    -0.01900
C1245       C  0.38277808  0.32975333  0.70415644     0.06700
C1246       C  0.38852092  0.33746693  0.69551964     0.04800
H1247       H  0.36515124  0.33275768  0.71439549     0.09900
H1248       H  0.39737168  0.33591580  0.69090657     0.08700
N1249       N  0.41367763  0.22780939  0.76018380    -0.25700
N1250       N  0.42469053  0.22285471  0.76280256    -0.33500
C1251       C  0.42301428  0.21208378  0.76904935     0.02700
C1252       C  0.41036736  0.21017288  0.77044476     0.08700
C1253       C  0.40467225  0.22026841  0.76474103    -0.04400
H1254       H  0.43047022  0.20608621  0.77229358     0.09300
H1255       H  0.39475346  0.22198029  0.76389908     0.10500
Cu1256     Cu  0.44160845  0.23080186  0.75793308     0.44200
Cu1257     Cu  0.41155407  0.24454414  0.75037694     0.42000
Cu1258     Cu  0.44061260  0.25983716  0.74118198     0.43900
N1259       N  0.45743130  0.24053492  0.75266476    -0.33100
N1260       N  0.45710434  0.25119512  0.74644908    -0.27300
C1261       C  0.46886844  0.25505537  0.74432097    -0.03400
C1262       C  0.47696446  0.24643716  0.74950935     0.08800
C1263       C  0.46938849  0.23733106  0.75472181     0.02600
H1264       H  0.47134283  0.26349208  0.73934797     0.10200
H1265       H  0.47227312  0.22891772  0.75950314     0.09300
N1266       N  0.42300032  0.26668369  0.73699907    -0.34500
N1267       N  0.41239621  0.26123554  0.74029884    -0.26700
C1268       C  0.40279099  0.26825380  0.73616373    -0.01900
C1269       C  0.40766177  0.27852227  0.73000836     0.06700
C1270       C  0.42044438  0.27725297  0.73071039     0.04800
H1271       H  0.39303251  0.26607658  0.73760384     0.09900
H1272       H  0.42740291  0.28358337  0.72700396     0.08700
N1273       N  0.22542169  0.07549103  0.74796332    -0.25700
N1274       N  0.22058650  0.06440721  0.74537371    -0.33500
C1275       C  0.20973428  0.06592132  0.73926212     0.02700
C1276       C  0.20761106  0.07852641  0.73791580     0.08700
C1277       C  0.21768662  0.08438400  0.74350539    -0.04400
H1278       H  0.20386144  0.05837115  0.73600086     0.09300
H1279       H  0.21929946  0.09433027  0.74425193     0.10500
Cu1280     Cu  0.22869587  0.04751648  0.74995151     0.44200
Cu1281     Cu  0.24237730  0.07785900  0.75742789     0.42000
Cu1282     Cu  0.25799739  0.04877870  0.76581412     0.43900
N1283       N  0.23840172  0.03173174  0.75528461    -0.33100
N1284       N  0.24918284  0.03217706  0.76125456    -0.27300
C1285       C  0.25302238  0.02046021  0.76364167    -0.03400
C1286       C  0.24427803  0.01226569  0.75884292     0.08800
C1287       C  0.23510324  0.01973465  0.75361442     0.02600
H1288       H  0.26156131  0.01808605  0.76846893     0.10200
H1289       H  0.22658966  0.01674543  0.74908407     0.09300
N1290       N  0.26499021  0.06634465  0.76992252    -0.34500
N1291       N  0.25941480  0.07698980  0.76700509    -0.26700
C1292       C  0.26649230  0.08653105  0.77122676    -0.01900
C1293       C  0.27692848  0.08156586  0.77702593     0.06700
C1294       C  0.27568645  0.06879946  0.77602142     0.04800
H1295       H  0.26420900  0.09631137  0.77015311     0.09900
H1296       H  0.28207176  0.06177632  0.77948725     0.08700
N1297       N  0.07538125  0.22710251  0.74266693    -0.25700
N1298       N  0.06453584  0.22177554  0.74004067    -0.33500
C1299       C  0.06654569  0.21104544  0.73386628     0.02700
C1300       C  0.07923396  0.20952052  0.73251166     0.08700
C1301       C  0.08461925  0.21981579  0.73817406    -0.04400
H1302       H  0.05928381  0.20472689  0.73078646     0.09300
H1303       H  0.09448281  0.22176817  0.73913774     0.10500
Cu1304     Cu  0.04735313  0.22865954  0.74540459     0.44200
Cu1305     Cu  0.07695805  0.24375815  0.75280165     0.42000
Cu1306     Cu  0.04753504  0.25525960  0.76550678     0.43900
N1307       N  0.03129891  0.23629699  0.75281859    -0.33100
N1308       N  0.03137518  0.24595547  0.76047676    -0.27300
C1309       C  0.01957556  0.24861877  0.76380999    -0.03400
C1310       C  0.01170854  0.24028964  0.75787412     0.08800
C1311       C  0.01945576  0.23256874  0.75099087     0.02600
H1312       H  0.01690963  0.25618401  0.76993299     0.10200
H1313       H  0.01676907  0.22481030  0.74512112     0.09300
N1314       N  0.06463219  0.26372237  0.76859262    -0.34500
N1315       N  0.07538160  0.25975109  0.76395956    -0.26700
C1316       C  0.08452203  0.26757249  0.76773115    -0.01900
C1317       C  0.07918673  0.27680033  0.77504268     0.06700
C1318       C  0.06661683  0.27408934  0.77538242     0.04800
H1319       H  0.09427953  0.26661995  0.76531508     0.09900
H1320       H  0.05940017  0.27929749  0.78015770     0.08700
N1321       N  0.26281048  0.41363294  0.75000631    -0.25700
N1322       N  0.26814107  0.42461507  0.74799689    -0.33500
C1323       C  0.27873562  0.42294961  0.74146994     0.02700
C1324       C  0.28015855  0.41035883  0.73924237     0.08700
C1325       C  0.26993775  0.40467026  0.74475858    -0.04400
H1326       H  0.28487045  0.43039771  0.73845179     0.09300
H1327       H  0.26777593  0.39479938  0.74485673     0.10500
Cu1328     Cu  0.26077721  0.44162414  0.75359656     0.44200
Cu1329     Cu  0.24586582  0.41155894  0.75949508     0.42000
Cu1330     Cu  0.23103210  0.44104241  0.76854717     0.43900
N1331       N  0.25147696  0.45772576  0.75898808    -0.33100
N1332       N  0.24050878  0.45750639  0.76462817    -0.27300
C1333       C  0.23684549  0.46931064  0.76688189    -0.03400
C1334       C  0.24588104  0.47735633  0.76232079     0.08800
C1335       C  0.25505580  0.46967735  0.75738670     0.02600
H1336       H  0.22814951  0.47185722  0.77132544     0.10200
H1337       H  0.26368755  0.47251070  0.75297640     0.09300
N1338       N  0.22334225  0.42352733  0.77174993    -0.34500
N1339       N  0.22866428  0.41280747  0.76864454    -0.26700
C1340       C  0.22115105  0.40335587  0.77226607    -0.01900
C1341       C  0.21068441  0.40843905  0.77785638     0.06700
C1342       C  0.21235384  0.42119139  0.77736949     0.04800
H1343       H  0.22316150  0.39355249  0.77091754     0.09900
H1344       H  0.20607263  0.42827924  0.78087662     0.08700
N1345       N  0.29292331  0.84827204  0.88274652    -0.25700
N1346       N  0.30034332  0.84913447  0.89258877    -0.33500
C1347       C  0.29835936  0.83918738  0.90006594     0.02700
C1348       C  0.28927935  0.83179848  0.89460755     0.08700
C1349       C  0.28602856  0.83780592  0.88368115    -0.04400
H1350       H  0.30310426  0.83752101  0.90883051     0.09300
H1351       H  0.27912616  0.83483860  0.87692398     0.10500
Cu1352     Cu  0.31253859  0.86406949  0.89534060     0.44200
Cu1353     Cu  0.29236759  0.86140662  0.86852855     0.42000
Cu1354     Cu  0.31219813  0.88865120  0.87153950     0.43900
N1355       N  0.32329527  0.88028665  0.89625805    -0.33100
N1356       N  0.32314823  0.88922805  0.88769483    -0.27300
C1357       C  0.33109762  0.89834828  0.89119254    -0.03400
C1358       C  0.33646198  0.89496161  0.90244399     0.08800
C1359       C  0.33133430  0.88349248  0.90539328     0.02600
H1360       H  0.33287194  0.90678021  0.88590369     0.10200
H1361       H  0.33331212  0.87786250  0.91355431     0.09300
N1362       N  0.30023799  0.88563465  0.85641051    -0.34500
N1363       N  0.29303959  0.87563421  0.85540530    -0.26700
C1364       C  0.28629464  0.87644332  0.84483306    -0.01900
C1365       C  0.28939425  0.88745220  0.83889611     0.06700
C1366       C  0.29823595  0.89309065  0.84644615     0.04800
H1367       H  0.27952745  0.86958205  0.84178972     0.09900
H1368       H  0.30276333  0.90199259  0.84490289     0.08700
N1369       N  0.29957334  0.62043363  0.65445008    -0.25700
N1370       N  0.30623653  0.61011817  0.65312724    -0.33500
C1371       C  0.30380210  0.60241168  0.66279162     0.02700
C1372       C  0.29522903  0.60818673  0.67051993     0.08700
C1373       C  0.29273566  0.61957106  0.66497866    -0.04400
H1374       H  0.30775756  0.59318893  0.66394033     0.09300
H1375       H  0.28619944  0.62657632  0.66817186     0.10500
Cu1376     Cu  0.31786550  0.60687942  0.63785317     0.44200
Cu1377     Cu  0.29946412  0.63484664  0.64140637     0.42000
Cu1378     Cu  0.31816669  0.63085337  0.61346741     0.43900
N1379       N  0.32873038  0.60589215  0.62172207    -0.33100
N1380       N  0.32886707  0.61457165  0.61289461    -0.27300
C1381       C  0.33673098  0.61097578  0.60375185    -0.03400
C1382       C  0.34173985  0.59953462  0.60699945     0.08800
C1383       C  0.33649295  0.59656790  0.61841016     0.02600
H1384       H  0.33854768  0.61624052  0.59531282     0.10200
H1385       H  0.33808439  0.58820025  0.62385296     0.09300
N1386       N  0.30651702  0.64618243  0.61649002    -0.34500
N1387       N  0.29978509  0.64762247  0.62675816    -0.26700
C1388       C  0.29308015  0.65821364  0.62581119    -0.01900
C1389       C  0.29571861  0.66368939  0.61443301     0.06700
C1390       C  0.30424740  0.65585070  0.60873096     0.04800
H1391       H  0.28659993  0.66154924  0.63280585     0.09900
H1392       H  0.30835383  0.65697828  0.59956566     0.08700
N1393       N  0.19384316  0.64141244  0.88291227    -0.25700
N1394       N  0.18612181  0.64081149  0.89253606    -0.33500
C1395       C  0.18779253  0.65103162  0.89970302     0.02700
C1396       C  0.19698677  0.65832436  0.89425971     0.08700
C1397       C  0.20062097  0.65196750  0.88366927    -0.04400
H1398       H  0.18274038  0.65296808  0.90823406     0.09300
H1399       H  0.20768404  0.65477421  0.87700405     0.10500
Cu1400     Cu  0.17395543  0.62581077  0.89524307     0.44200
Cu1401     Cu  0.19485546  0.62783291  0.86918850     0.42000
Cu1402     Cu  0.17550563  0.60040573  0.87193929     0.43900
N1403       N  0.16345454  0.60939324  0.89604443    -0.33100
N1404       N  0.16407870  0.60022942  0.88775207    -0.27300
C1405       C  0.15635124  0.59095521  0.89133996    -0.03400
C1406       C  0.15062568  0.59446639  0.90234873     0.08800
C1407       C  0.15530625  0.60616598  0.90508096     0.02600
H1408       H  0.15509733  0.58226046  0.88635611     0.10200
H1409       H  0.15308892  0.61186014  0.91312158     0.09300
N1410       N  0.18782666  0.60336875  0.85710440    -0.34500
N1411       N  0.19484243  0.61350532  0.85620923    -0.26700
C1412       C  0.20185778  0.61280542  0.84581618    -0.01900
C1413       C  0.19914535  0.60171764  0.83987676     0.06700
C1414       C  0.19022969  0.59591392  0.84723968     0.04800
H1415       H  0.20852221  0.61981856  0.84287871     0.09900
H1416       H  0.18589388  0.58693436  0.84561581     0.08700
N1417       N  0.23788283  0.57590466  0.77110824    -0.25700
N1418       N  0.23597298  0.56496831  0.77656890    -0.33500
C1419       C  0.22999359  0.56675453  0.78746456     0.02700
C1420       C  0.22802065  0.57938039  0.78895164     0.08700
C1421       C  0.23311405  0.58496402  0.77845017    -0.04400
H1422       H  0.22723739  0.55937234  0.79380315     0.09300
H1423       H  0.23331837  0.59483392  0.77628642     0.10500
Cu1424     Cu  0.24133589  0.54791373  0.76914897     0.44200
Cu1425     Cu  0.24695304  0.57777746  0.75390408     0.42000
Cu1426     Cu  0.25698630  0.54833714  0.73961111     0.43900
N1427       N  0.24740352  0.53182451  0.76026437    -0.33100
N1428       N  0.25333368  0.53196175  0.74944049    -0.27300
C1429       C  0.25620724  0.52015182  0.74623416    -0.03400
C1430       C  0.25174359  0.51219592  0.75540923     0.08800
C1431       C  0.24622618  0.51993449  0.76418837     0.02600
H1432       H  0.26104083  0.51753226  0.73776803     0.10200
H1433       H  0.24176350  0.51718690  0.77282657     0.09300
N1434       N  0.26019205  0.56588469  0.73186053    -0.34500
N1435       N  0.25665542  0.57656557  0.73699090    -0.26700
C1436       C  0.26058099  0.58606970  0.72969465    -0.01900
C1437       C  0.26683928  0.58109169  0.71955633     0.06700
C1438       C  0.26641819  0.56831636  0.72120519     0.04800
H1439       H  0.25909634  0.59585476  0.73169641     0.09900
H1440       H  0.27046877  0.56128745  0.71518989     0.08700
N1441       N  0.25243130  0.76224729  0.92105801    -0.25700
N1442       N  0.25517262  0.76730362  0.93200762    -0.33500
C1443       C  0.26142180  0.77803941  0.93018191     0.02700
C1444       C  0.26271308  0.77985794  0.91751568     0.08700
C1445       C  0.25693070  0.76972415  0.91194690    -0.04400
H1446       H  0.26469095  0.78411489  0.93756350     0.09300
H1447       H  0.25596598  0.76796549  0.90204551     0.10500
Cu1448     Cu  0.25029460  0.75987600  0.94915854     0.44200
Cu1449     Cu  0.24241626  0.74551836  0.91910737     0.42000
Cu1450     Cu  0.23172146  0.73222984  0.94848535     0.43900
N1451       N  0.24410720  0.75099824  0.96514834    -0.33100
N1452       N  0.23709008  0.74085936  0.96487654    -0.27300
C1453       C  0.23445946  0.73735005  0.97664195    -0.03400
C1454       C  0.24014958  0.74565359  0.98470425     0.08800
C1455       C  0.24619308  0.75422233  0.97710151     0.02600
H1456       H  0.22886962  0.72931670  0.97913697     0.10200
H1457       H  0.25160747  0.76224910  0.97995796     0.09300
N1458       N  0.22808633  0.72436474  0.93124507    -0.34500
N1459       N  0.23197183  0.72898884  0.92044794    -0.26700
C1460       C  0.22823260  0.72126523  0.91120858    -0.01900
C1461       C  0.22173015  0.71142099  0.91654943     0.06700
C1462       C  0.22182760  0.71367778  0.92920904     0.04800
H1463       H  0.23022262  0.72263746  0.90139785     0.09900
H1464       H  0.21780509  0.70788818  0.93646081     0.08700
N1465       N  0.19105429  0.84642938  0.62353151    -0.25700
N1466       N  0.18425514  0.84746442  0.61326773    -0.33500
C1467       C  0.18678993  0.83771922  0.60571705     0.02700
C1468       C  0.19556798  0.83026878  0.61158044     0.08700
C1469       C  0.19807038  0.83603894  0.62281786    -0.04400
H1470       H  0.18269307  0.83627764  0.59659541     0.09300
H1471       H  0.20465829  0.83304461  0.62987257     0.10500
Cu1472     Cu  0.17214266  0.86237731  0.61019206     0.44200
Cu1473     Cu  0.19092254  0.85943289  0.63785978     0.42000
Cu1474     Cu  0.17042199  0.88577928  0.63554920     0.43900
N1475       N  0.16071347  0.87812424  0.60996242    -0.33100
N1476       N  0.16000839  0.88643081  0.61910686    -0.27300
C1477       C  0.15184954  0.89541618  0.61582370    -0.03400
C1478       C  0.14725484  0.89262580  0.60411364     0.08800
C1479       C  0.15303032  0.88164736  0.60064272     0.02600
H1480       H  0.14958459  0.90346938  0.62147865     0.10200
H1481       H  0.15185264  0.87664684  0.59194483     0.09300
N1482       N  0.18263399  0.88316098  0.65049004    -0.34500
N1483       N  0.19018843  0.87342208  0.65120733    -0.26700
C1484       C  0.19716934  0.87434865  0.66161187    -0.01900
C1485       C  0.19384543  0.88516787  0.66774507     0.06700
C1486       C  0.18461638  0.89057111  0.66047938     0.04800
H1487       H  0.20421590  0.86768022  0.66442892     0.09900
H1488       H  0.17980234  0.89927256  0.66223875     0.08700
N1489       N  0.23002476  0.91287749  0.73728638    -0.25700
N1490       N  0.22692927  0.92362096  0.73199881    -0.33500
C1491       C  0.22093106  0.92138920  0.72120195     0.02700
C1492       C  0.22016674  0.90865809  0.71957071     0.08700
C1493       C  0.22600327  0.90347696  0.72990295    -0.04400
H1494       H  0.21743464  0.92854472  0.71497378     0.09300
H1495       H  0.22731239  0.89365356  0.73186206     0.10500
Cu1496     Cu  0.23089225  0.94102084  0.73936656     0.44200
Cu1497     Cu  0.23987750  0.91182120  0.75419908     0.42000
Cu1498     Cu  0.24793683  0.94207799  0.76802805     0.43900
N1499       N  0.23559802  0.95753571  0.74817944    -0.33100
N1500       N  0.24200011  0.95794497  0.75871495    -0.27300
C1501       C  0.24375145  0.96994144  0.76198030    -0.03400
C1502       C  0.23813211  0.97742835  0.75303644     0.08800
C1503       C  0.23301319  0.96925231  0.74447128     0.02600
H1504       H  0.24865588  0.97292115  0.77028626     0.10200
H1505       H  0.22788465  0.97163741  0.73610775     0.09300
N1506       N  0.25303261  0.92502101  0.77559002    -0.34500
N1507       N  0.25017065  0.91401154  0.77073355    -0.26700
C1508       C  0.25500897  0.90499468  0.77810173    -0.01900
C1509       C  0.26115594  0.91066998  0.78795660     0.06700
C1510       C  0.25971681  0.92331780  0.78608781     0.04800
H1511       H  0.25410350  0.89507605  0.77641279     0.09900
H1512       H  0.26323884  0.93076705  0.79193449     0.08700
N1513       N  0.25657911  0.73047100  0.58436030    -0.25700
N1514       N  0.26012036  0.72543125  0.57364361    -0.33500
C1515       C  0.26699636  0.71518297  0.57597925     0.02700
C1516       C  0.26784314  0.71368537  0.58874555     0.08700
C1517       C  0.26115064  0.72350177  0.59382266    -0.04400
H1518       H  0.27098445  0.70920550  0.56888155     0.09300
H1519       H  0.25962885  0.72538697  0.60362787     0.10500
Cu1520     Cu  0.25543157  0.73243186  0.55619120     0.44200
Cu1521     Cu  0.24560324  0.74659206  0.58545164     0.42000
Cu1522     Cu  0.23697491  0.76040189  0.55547391     0.43900
N1523       N  0.24975858  0.74099775  0.53976750    -0.33100
N1524       N  0.24284600  0.75121062  0.53949192    -0.27300
C1525       C  0.24071701  0.75441935  0.52752326    -0.03400
C1526       C  0.24662862  0.74579562  0.51990737     0.08800
C1527       C  0.25229342  0.73746533  0.52798573     0.02600
H1528       H  0.23544578  0.76253433  0.52464673     0.10200
H1529       H  0.25786137  0.72942897  0.52548531     0.09300
N1530       N  0.23225658  0.76802019  0.57263467    -0.34500
N1531       N  0.23524155  0.76304316  0.58356379    -0.26700
C1532       C  0.23071184  0.77039631  0.59272661    -0.01900
C1533       C  0.22465529  0.78040450  0.58723977     0.06700
C1534       C  0.22580946  0.77862545  0.57454005     0.04800
H1535       H  0.23179947  0.76861169  0.60261430     0.09900
H1536       H  0.22224333  0.78459454  0.56720006     0.08700
N1537       N  0.34537358  0.79760078  0.12652491    -0.25700
N1538       N  0.34616609  0.80581226  0.11731600    -0.33500
C1539       C  0.33579793  0.80501134  0.11023632     0.02700
C1540       C  0.32818388  0.79588848  0.11529134     0.08700
C1541       C  0.33450492  0.79136457  0.12556986    -0.04400
H1542       H  0.33410382  0.81042125  0.10186641     0.09300
H1543       H  0.33159435  0.78387346  0.13170975     0.10500
Cu1544     Cu  0.36173362  0.81709037  0.11443260     0.44200
Cu1545     Cu  0.35943483  0.79472002  0.13950621     0.42000
Cu1546     Cu  0.38802013  0.81273181  0.13553386     0.43900
N1547       N  0.37857371  0.82665464  0.11276801    -0.33100
N1548       N  0.38819927  0.82508191  0.12037150    -0.27300
C1549       C  0.39767305  0.83243019  0.11647950    -0.03400
C1550       C  0.39377992  0.83887764  0.10596890     0.08800
C1551       C  0.38166237  0.83501106  0.10387420     0.02600
H1552       H  0.40674106  0.83294394  0.12090276     0.10200
H1553       H  0.37556828  0.83794032  0.09636456     0.09300
N1554       N  0.38524937  0.79963211  0.14978454    -0.34500
N1555       N  0.37481726  0.79312845  0.15114574    -0.26700
C1556       C  0.37590318  0.78558300  0.16114776    -0.01900
C1557       C  0.38754711  0.78742012  0.16632467     0.06700
C1558       C  0.39325793  0.79636469  0.15894117     0.04800
H1559       H  0.36870708  0.77928170  0.16442775     0.09900
H1560       H  0.40250011  0.80025488  0.16015679     0.08700
N1561       N  0.11848596  0.69273310  0.15040062    -0.25700
N1562       N  0.10919930  0.68459761  0.14999499    -0.33500
C1563       C  0.10231280  0.68570005  0.16045279     0.02700
C1564       C  0.10757222  0.69494941  0.16772701     0.08700
C1565       C  0.11777134  0.69924281  0.16111963    -0.04400
H1566       H  0.09401203  0.68030701  0.16249671     0.09300
H1567       H  0.12410604  0.70664563  0.16380007     0.10500
Cu1568     Cu  0.10616205  0.67279050  0.13496747     0.44200
Cu1569     Cu  0.13147079  0.69478912  0.13618828     0.42000
Cu1570     Cu  0.12725461  0.67617563  0.10826577     0.43900
N1571       N  0.10462309  0.66260872  0.11858070    -0.33100
N1572       N  0.11214482  0.66385544  0.10883722    -0.27300
C1573       C  0.10835255  0.65599806  0.09977165    -0.03400
C1574       C  0.09801318  0.64957380  0.10407325     0.08800
C1575       C  0.09588714  0.65395926  0.11598287     0.02600
H1576       H  0.11276528  0.65508089  0.09072904     0.10200
H1577       H  0.08849402  0.65115581  0.12228051     0.09300
N1578       N  0.14193112  0.68878838  0.11068798    -0.34500
N1579       N  0.14341393  0.69548751  0.12096462    -0.26700
C1580       C  0.15376451  0.70252413  0.11985541    -0.01900
C1581       C  0.15904453  0.70015067  0.10835603     0.06700
C1582       C  0.15134868  0.69142175  0.10274192     0.04800
H1583       H  0.15720114  0.70886016  0.12693486     0.09900
H1584       H  0.15253106  0.68724385  0.09362406     0.08700
N1585       N  0.22743247  0.73934244  0.08251236    -0.25700
N1586       N  0.22300700  0.73617413  0.07141528    -0.33500
C1587       C  0.21257214  0.72934486  0.07290348     0.02700
C1588       C  0.21030320  0.72814410  0.08551755     0.08700
C1589       C  0.21985486  0.73457695  0.09139072    -0.04400
H1590       H  0.20698047  0.72566058  0.06533593     0.09300
H1591       H  0.22114319  0.73580551  0.10133603     0.10500
Cu1592     Cu  0.23097638  0.74148393  0.05463147     0.44200
Cu1593     Cu  0.24352423  0.75018300  0.08482629     0.42000
Cu1594     Cu  0.25795671  0.76138302  0.05599627     0.43900
N1595       N  0.24007614  0.74816776  0.03895555    -0.33100
N1596       N  0.24989018  0.75563031  0.03943002    -0.27300
C1597       C  0.25355766  0.75834899  0.02772507    -0.03400
C1598       C  0.24570726  0.75224395  0.01950468     0.08800
C1599       C  0.23723814  0.74588334  0.02694857     0.02600
H1600       H  0.26141546  0.76424250  0.02538048     0.10200
H1601       H  0.22953959  0.74008448  0.02395057     0.09300
N1602       N  0.26493374  0.76497189  0.07364351    -0.34500
N1603       N  0.25983781  0.76092041  0.08416653    -0.26700
C1604       C  0.26700923  0.76466463  0.09382020    -0.01900
C1605       C  0.27699324  0.77134905  0.08906050     0.06700
C1606       C  0.27541264  0.77135836  0.07629224     0.04800
H1607       H  0.26516102  0.76255851  0.10352918     0.09900
H1608       H  0.28150429  0.77555376  0.06939615     0.08700
N1609       N  0.37195649  0.69543813  0.35636914    -0.25700
N1610       N  0.38104648  0.68710345  0.35692194    -0.33500
C1611       C  0.38783108  0.68779161  0.34634366     0.02700
C1612       C  0.38268446  0.69697193  0.33886145     0.08700
C1613       C  0.37268307  0.70164634  0.34546804    -0.04400
H1614       H  0.39598684  0.68217897  0.34435749     0.09300
H1615       H  0.36648734  0.70911703  0.34265959     0.10500
Cu1616     Cu  0.38389788  0.67564790  0.37236290     0.44200
Cu1617     Cu  0.35914626  0.69820780  0.37055019     0.42000
Cu1618     Cu  0.36236459  0.67961851  0.39866836     0.43900
N1619       N  0.38536735  0.66602023  0.38918864    -0.33100
N1620       N  0.37767359  0.66744821  0.39877216    -0.27300
C1621       C  0.38152222  0.66002174  0.40820487    -0.03400
C1622       C  0.39208364  0.65367941  0.40432781     0.08800
C1623       C  0.39426122  0.65768437  0.39226753     0.02600
H1624       H  0.37701077  0.65935518  0.41722323     0.10200
H1625       H  0.40181122  0.65483886  0.38619139     0.09300
N1626       N  0.34804358  0.69263310  0.39585367    -0.34500
N1627       N  0.34703127  0.69939944  0.38554847    -0.26700
C1628       C  0.33695973  0.70684056  0.38642865    -0.01900
C1629       C  0.33134475  0.70466884  0.39780856     0.06700
C1630       C  0.33856048  0.69562686  0.40358860     0.04800
H1631       H  0.33393218  0.71330430  0.37926590     0.09900
H1632       H  0.33702412  0.69150917  0.41269021     0.08700
N1633       N  0.10979909  0.79140053  0.35532065    -0.25700
N1634       N  0.09963987  0.79833447  0.35645588    -0.33500
C1635       C  0.09190848  0.79576263  0.34684421     0.02700
C1636       C  0.09756271  0.78682731  0.33942129     0.08700
C1637       C  0.10883878  0.78427504  0.34504167    -0.04400
H1638       H  0.08294299  0.80015148  0.34531962     0.09300
H1639       H  0.11591291  0.77781692  0.34184035     0.10500
Cu1640     Cu  0.09720397  0.81118175  0.37093529     0.44200
Cu1641     Cu  0.12484909  0.79204668  0.36737465     0.42000
Cu1642     Cu  0.12416634  0.81467413  0.39188164     0.43900
N1643       N  0.09788222  0.82345022  0.38609636    -0.33100
N1644       N  0.10768055  0.82472141  0.39354345    -0.27300
C1645       C  0.10510157  0.83332618  0.40232352    -0.03400
C1646       C  0.09315349  0.83766263  0.40030963     0.08800
C1647       C  0.08880997  0.83124939  0.38998717     0.02600
H1648       H  0.11145319  0.83615702  0.40965361     0.10200
H1649       H  0.07973933  0.83215617  0.38563478     0.09300
N1650       N  0.13919401  0.80281736  0.38890784    -0.34500
N1651       N  0.13933427  0.79438205  0.37990268    -0.26700
C1652       C  0.15006681  0.78789876  0.38048724    -0.01900
C1653       C  0.15698226  0.79251738  0.39031524     0.06700
C1654       C  0.14986807  0.80194039  0.39549364     0.04800
H1655       H  0.15256928  0.78032706  0.37429080     0.09900
H1656       H  0.15218138  0.80761755  0.40352180     0.08700
N1657       N  0.26196606  0.74311467  0.42213378    -0.25700
N1658       N  0.26643837  0.74033375  0.43332165    -0.33500
C1659       C  0.27737511  0.73431536  0.43203371     0.02700
C1660       C  0.27992027  0.73323727  0.41946276     0.08700
C1661       C  0.27000152  0.73889041  0.41340042    -0.04400
H1662       H  0.28300388  0.73090501  0.43970479     0.09300
H1663       H  0.26867853  0.73980339  0.40342291     0.10500
Cu1664     Cu  0.25754071  0.74450523  0.44997613     0.44200
Cu1665     Cu  0.24499049  0.75236305  0.41950807     0.42000
Cu1666     Cu  0.22809890  0.76009279  0.44831999     0.43900
N1667       N  0.24724106  0.74926732  0.46562682    -0.33100
N1668       N  0.23642855  0.75516251  0.46505576    -0.27300
C1669       C  0.23222186  0.75713596  0.47673133    -0.03400
C1670       C  0.24076359  0.75214656  0.48503774     0.08800
C1671       C  0.25019161  0.74723912  0.47766445     0.02600
H1672       H  0.22358146  0.76182943  0.47900127     0.10200
H1673       H  0.25865989  0.74270278  0.48075253     0.09300
N1674       N  0.22163589  0.76395045  0.43050920    -0.34500
N1675       N  0.22764048  0.76125639  0.42003654    -0.26700
C1676       C  0.22060528  0.76496681  0.41026664    -0.01900
C1677       C  0.20975800  0.77019479  0.41490381     0.06700
C1678       C  0.21069150  0.76940004  0.42770492     0.04800
H1679       H  0.22314601  0.76382157  0.40055760     0.09900
H1680       H  0.20387540  0.77244934  0.43451009     0.08700
N1681       N  0.07425566  0.74788912  0.27009364    -0.25700
N1682       N  0.06308944  0.75006525  0.27490344    -0.33500
C1683       C  0.06434703  0.75658997  0.28554121     0.02700
C1684       C  0.07688312  0.75862940  0.28753926     0.08700
C1685       C  0.08296356  0.75301195  0.27761899    -0.04400
H1686       H  0.05668300  0.75953189  0.29142795     0.09300
H1687       H  0.09292966  0.75258954  0.27603218     0.10500
Cu1688     Cu  0.04654901  0.74398653  0.26708269     0.44200
Cu1689     Cu  0.07680576  0.73785388  0.25358117     0.42000
Cu1690     Cu  0.04817378  0.72582164  0.23904461     0.43900
N1691       N  0.03098468  0.73720605  0.25795194    -0.33100
N1692       N  0.03151039  0.73040895  0.24767973    -0.27300
C1693       C  0.01981923  0.72764294  0.24400295    -0.03400
C1694       C  0.01156720  0.73303603  0.25233798     0.08800
C1695       C  0.01898310  0.73900593  0.26109157     0.02600
H1696       H  0.01749902  0.72230342  0.23575831     0.10200
H1697       H  0.01597408  0.74432108  0.26912041     0.09300
N1698       N  0.06594626  0.72321336  0.23190490    -0.34500
N1699       N  0.07632936  0.72754586  0.23704572    -0.26700
C1700       C  0.08608732  0.72433758  0.22977656    -0.01900
C1701       C  0.08155478  0.71770864  0.21968000     0.06700
C1702       C  0.06880686  0.71717117  0.22128513     0.04800
H1703       H  0.09571114  0.72676435  0.23164606     0.09900
H1704       H  0.06206619  0.71283897  0.21512770     0.08700
N1705       N  0.41405270  0.74990741  0.23544573    -0.25700
N1706       N  0.42511729  0.75328392  0.23108737    -0.33500
C1707       C  0.42360174  0.75942190  0.22022359     0.02700
C1708       C  0.41100660  0.75992830  0.21761574     0.08700
C1709       C  0.40517858  0.75383067  0.22741391    -0.04400
H1710       H  0.43113513  0.76315724  0.21461079     0.09300
H1711       H  0.39526243  0.75230940  0.22860202     0.10500
Cu1712     Cu  0.44188468  0.74918340  0.23981291     0.44200
Cu1713     Cu  0.41172317  0.74002202  0.25211148     0.42000
Cu1714     Cu  0.44053261  0.73079563  0.26790302     0.43900
N1715       N  0.45757177  0.74340541  0.24953022    -0.33100
N1716       N  0.45711882  0.73642902  0.25970895    -0.27300
C1717       C  0.46883563  0.73399437  0.26353068    -0.03400
C1718       C  0.47703925  0.73981008  0.25541769     0.08800
C1719       C  0.46957003  0.74567812  0.24663034     0.02600
H1720       H  0.47120126  0.72843639  0.27162662     0.10200
H1721       H  0.47256397  0.75102360  0.23859708     0.09300
N1722       N  0.42281024  0.72701620  0.27464964    -0.34500
N1723       N  0.41230151  0.73032777  0.26903751    -0.26700
C1724       C  0.40258224  0.72654837  0.27610845    -0.01900
C1725       C  0.40728962  0.72061374  0.28657277     0.06700
C1726       C  0.42008338  0.72108301  0.28537853     0.04800
H1727       H  0.39286415  0.72808453  0.27383478     0.09900
H1728       H  0.42693604  0.71746494  0.29186716     0.08700
C1729       C  0.09299018  0.78138954  0.32800158    -0.16900
C1730       C  0.08969558  0.77642891  0.31842524     0.07200
C1731       C  0.08592021  0.77032814  0.30732767     0.09000
C1732       C  0.08226035  0.76500145  0.29808796    -0.17800
C1733       C  0.16889593  0.78803326  0.39458017    -0.16900
C1734       C  0.17874426  0.78405690  0.39832732     0.07200
C1735       C  0.19002609  0.77925088  0.40319396     0.09000
C1736       C  0.19931019  0.77510156  0.40803853    -0.17800
C1737       C  0.32019101  0.71060158  0.40247192    -0.16900
C1738       C  0.31082466  0.71580820  0.40601151     0.07200
C1739       C  0.29988477  0.72200003  0.41013905     0.09000
C1740       C  0.29066265  0.72722034  0.41401738    -0.17800
C1741       C  0.38716806  0.70135482  0.32696678    -0.16900
C1742       C  0.39094174  0.70549644  0.31717926     0.07200
C1743       C  0.39573795  0.71070668  0.30602447     0.09000
C1744       C  0.40050429  0.71526432  0.29687566    -0.17800
C1745       C  0.17030645  0.70565898  0.10341979    -0.16900
C1746       C  0.17973574  0.71058660  0.09963283     0.07200
C1747       C  0.19067451  0.71661005  0.09523539     0.09000
C1748       C  0.19980338  0.72186107  0.09115775    -0.17800
C1749       C  0.08846655  0.71276344  0.20928564    -0.16900
C1750       C  0.09356282  0.70856103  0.20016382     0.07200
C1751       C  0.09886587  0.70367848  0.18911467     0.09000
C1752       C  0.10298493  0.69961475  0.17945202    -0.17800
C1753       C  0.31660892  0.79121545  0.11028495    -0.16900
C1754       C  0.30711124  0.78688537  0.10601697     0.07200
C1755       C  0.29625064  0.78150708  0.10074800     0.09000
C1756       C  0.28726244  0.77683618  0.09579157    -0.17800
C1757       C  0.39250772  0.78140582  0.17731646    -0.16900
C1758       C  0.39643549  0.77632650  0.18660831     0.07200
C1759       C  0.40106250  0.77044566  0.19753080     0.09000
C1760       C  0.40530577  0.76555845  0.20678537    -0.17800
C1761       C  0.24733272  0.74547595  0.50613658    -0.14800
C1762       C  0.23990975  0.75245421  0.49880656    -0.30000
H1763       H  0.25399482  0.73908744  0.50196750     0.14200
H1764       H  0.23281665  0.75838046  0.50295053     0.14800
C1765       C  0.19921218  0.88987254  0.67918140    -0.16900
C1766       C  0.20399537  0.89358057  0.68872001     0.07200
C1767       C  0.20972792  0.89804838  0.69979554     0.09000
C1768       C  0.21457643  0.90238081  0.70903298    -0.17800
C1769       C  0.20149089  0.81918678  0.60675232    -0.16900
C1770       C  0.20675511  0.81004134  0.60275951     0.07200
C1771       C  0.21307045  0.79949362  0.59787966     0.09000
C1772       C  0.21842519  0.79066335  0.59333560    -0.17800
C1773       C  0.23950754  0.74522678  0.99845216    -0.14800
C1774       C  0.24643661  0.75269835  0.00575495    -0.30000
H1775       H  0.23326909  0.73840506  0.00261037     0.14200
H1776       H  0.25300052  0.75921777  0.00161096     0.14800
C1777       C  0.20485461  0.59712767  0.82857251    -0.16900
C1778       C  0.21004635  0.59358352  0.81919472     0.07200
C1779       C  0.21636123  0.58934337  0.80836192     0.09000
C1780       C  0.22175186  0.58524673  0.79932889    -0.17800
C1781       C  0.20194113  0.67006221  0.89866230    -0.16900
C1782       C  0.20638067  0.67984861  0.90214217     0.07200
C1783       C  0.21175789  0.69119070  0.90636990     0.09000
C1784       C  0.21636489  0.70063622  0.91050792    -0.17800
C1785       C  0.28933247  0.60299933  0.68149776    -0.16900
C1786       C  0.28419559  0.59846975  0.69049625     0.07200
C1787       C  0.27807016  0.59285898  0.70083469     0.09000
C1788       C  0.27287640  0.58773413  0.70947456    -0.17800
C1789       C  0.29016400  0.67488584  0.60935489    -0.16900
C1790       C  0.28523291  0.68414068  0.60514065     0.07200
C1791       C  0.27924571  0.69479215  0.60000728     0.09000
C1792       C  0.27405154  0.70361434  0.59522198    -0.17800
C1793       C  0.26759047  0.90481697  0.79825363    -0.16900
C1794       C  0.27296299  0.90057060  0.80723776     0.07200
C1795       C  0.27908128  0.89602572  0.81806958     0.09000
C1796       C  0.28401232  0.89221944  0.82749357    -0.17800
C1797       C  0.26861151  0.79041904  0.91158796    -0.16900
C1798       C  0.27359433  0.79965416  0.90741599     0.07200
C1799       C  0.27934148  0.81074112  0.90302729     0.09000
C1800       C  0.28404563  0.82031614  0.89932467    -0.17800
C1801       C  0.24540437  0.49116346  0.76268188    -0.14800
C1802       C  0.25271641  0.49840607  0.75546325    -0.30000
H1803       H  0.23840958  0.49542874  0.76864048     0.14200
H1804       H  0.25919322  0.49413574  0.74894834     0.14800
C1805       C  0.24481270  0.99851714  0.75952375    -0.14800
C1806       C  0.23747305  0.99117729  0.75248808    -0.30000
H1807       H  0.25170543  0.99438704  0.76569647     0.14200
H1808       H  0.23105662  0.99530740  0.74581822     0.14800
C1809       C  0.38742410  0.31817883  0.70921653    -0.16900
C1810       C  0.39132778  0.30864222  0.71381499     0.07200
C1811       C  0.39623535  0.29772566  0.71943961     0.09000
C1812       C  0.40100638  0.28872662  0.72429355    -0.17800
C1813       C  0.31857976  0.39225411  0.71436546    -0.16900
C1814       C  0.30945387  0.39602847  0.71983241     0.07200
C1815       C  0.29893741  0.40046005  0.72653495     0.09000
C1816       C  0.29019455  0.40459954  0.73235171    -0.17800
C1817       C  0.28714816  0.08810996  0.78288616    -0.16900
C1818       C  0.29613874  0.09280657  0.78785148     0.07200
C1819       C  0.30702806  0.09773366  0.79355130     0.09000
C1820       C  0.31653501  0.10173629  0.79814833    -0.17800
C1821       C  0.40449886  0.19962702  0.77640783    -0.16900
C1822       C  0.40014341  0.19048634  0.78139646     0.07200
C1823       C  0.39543751  0.17955026  0.78716487     0.09000
C1824       C  0.39151599  0.17012498  0.79198388    -0.17800
C1825       C  0.08535830  0.19900052  0.72680641    -0.16900
C1826       C  0.08972066  0.18979764  0.72197597     0.07200
C1827       C  0.09429865  0.17874453  0.71637665     0.09000
C1828       C  0.09806576  0.16916471  0.71178617    -0.17800
C1829       C  0.19705126  0.08414995  0.73177150    -0.16900
C1830       C  0.18792868  0.08809034  0.72643911     0.07200
C1831       C  0.17708411  0.09225866  0.72013919     0.09000
C1832       C  0.16777060  0.09586541  0.71490213    -0.17800
C1833       C  0.08521785  0.28728933  0.78097609    -0.16900
C1834       C  0.08954508  0.29638081  0.78609100     0.07200
C1835       C  0.09415601  0.30727281  0.79204827     0.09000
C1836       C  0.09802862  0.31669204  0.79693174    -0.17800
C1837       C  0.17052667  0.38810363  0.79770108    -0.16900
C1838       C  0.18003891  0.39216041  0.79318556     0.07200
C1839       C  0.19100206  0.39720358  0.78777182     0.09000
C1840       C  0.20014285  0.40196725  0.78317450    -0.17800
C1841       C  0.49798678  0.23917842  0.75570110    -0.14800
C1842       C  0.49072295  0.24694335  0.74903282    -0.30000
H1843       H  0.49380392  0.23243261  0.76201024     0.14200
H1844       H  0.49492742  0.25405269  0.74315317     0.14800
C1845       C  0.99079580  0.23333862  0.75104699    -0.14800
C1846       C  0.99798314  0.24012461  0.75877141    -0.30000
H1847       H  0.99502815  0.22773920  0.74374849     0.14200
H1848       H  0.99373491  0.24611808  0.76573537     0.14800
C1849       C  0.81860446  0.20788981  0.60214887    -0.16900
C1850       C  0.80913916  0.21273564  0.59835638     0.07200
C1851       C  0.79807632  0.21853981  0.59398323     0.09000
C1852       C  0.78877792  0.22354547  0.58999104    -0.17800
C1853       C  0.88578508  0.20119666  0.67819092    -0.16900
C1854       C  0.88983306  0.20530677  0.68787188     0.07200
C1855       C  0.89503511  0.21020737  0.69897306     0.09000
C1856       C  0.90008242  0.21434903  0.70815833    -0.17800
C1857       C  0.70174868  0.27869035  0.59645754    -0.16900
C1858       C  0.69302829  0.28355642  0.60167772     0.07200
C1859       C  0.68236742  0.28904456  0.60720432     0.09000
C1860       C  0.67293889  0.29338201  0.61159303    -0.17800
C1861       C  0.59635281  0.28354079  0.67812430    -0.16900
C1862       C  0.59229753  0.27847484  0.68737120     0.07200
C1863       C  0.58757357  0.27249212  0.69819987     0.09000
C1864       C  0.58331199  0.26740391  0.70734066    -0.17800
C1865       C  0.81915515  0.28697628  0.89503969    -0.16900
C1866       C  0.80923313  0.28309457  0.89873311     0.07200
C1867       C  0.79783553  0.27844035  0.90352997     0.09000
C1868       C  0.78844503  0.27444339  0.90832725    -0.17800
C1869       C  0.89549152  0.27946909  0.82885395    -0.16900
C1870       C  0.89891068  0.27448323  0.81933477     0.07200
C1871       C  0.90280390  0.26845223  0.80823913     0.09000
C1872       C  0.90649513  0.26324979  0.79894185    -0.17800
C1873       C  0.66868216  0.20878775  0.90110569    -0.16900
C1874       C  0.67775286  0.21429013  0.90495451     0.07200
C1875       C  0.68831664  0.22084648  0.90947270     0.09000
C1876       C  0.69723177  0.22638340  0.91362140    -0.17800
C1877       C  0.60157639  0.19982218  0.82576020    -0.16900
C1878       C  0.59776458  0.20430294  0.81613869     0.07200
C1879       C  0.59298416  0.20992602  0.80517935     0.09000
C1880       C  0.58825209  0.21478148  0.79616869    -0.17800
C1881       C  0.74729998  0.24612517  0.49803504    -0.14800
C1882       C  0.74051111  0.25370075  0.50536561    -0.30000
H1883       H  0.75345889  0.23923952  0.50219057     0.14200
H1884       H  0.73399543  0.26026920  0.50123809     0.14800
C1885       C  0.74722719  0.25154399  0.99884696    -0.14800
C1886       C  0.73946631  0.24488708  0.00613756    -0.30000
H1887       H  0.75453322  0.25718740  0.00302412     0.14200
H1888       H  0.73254178  0.23878755  0.00195087     0.14800
C1889       C  0.76979616  0.29000848  0.09279022    -0.16900
C1890       C  0.77506513  0.29888443  0.09736922     0.07200
C1891       C  0.78117402  0.30950088  0.10239449     0.09000
C1892       C  0.78620334  0.31871670  0.10655051    -0.17800
C1893       C  0.77171079  0.40195345  0.20926845    -0.16900
C1894       C  0.77663259  0.39747779  0.20013991     0.07200
C1895       C  0.78240937  0.39289552  0.18913399     0.09000
C1896       C  0.78720395  0.38917026  0.17960777    -0.17800
C1897       C  0.70258031  0.39340244  0.32805180    -0.16900
C1898       C  0.70756092  0.39715477  0.31863447     0.07200
C1899       C  0.71378774  0.40150259  0.30778850     0.09000
C1900       C  0.71925780  0.40555627  0.29877609    -0.17800
C1901       C  0.70264958  0.32042885  0.39874943    -0.16900
C1902       C  0.70728288  0.31076036  0.40227891     0.07200
C1903       C  0.71300387  0.29961743  0.40654173     0.09000
C1904       C  0.71801284  0.29039076  0.41068773    -0.17800
C1905       C  0.69632671  0.10335829  0.18223343    -0.16900
C1906       C  0.70131536  0.09885060  0.19131019     0.07200
C1907       C  0.70720835  0.09326942  0.20177411     0.09000
C1908       C  0.71219471  0.08815559  0.21052463    -0.17800
C1909       C  0.71326440  0.20337377  0.09554552    -0.16900
C1910       C  0.70813206  0.19447296  0.10027108     0.07200
C1911       C  0.70216008  0.18374414  0.10528599     0.09000
C1912       C  0.69720950  0.17445464  0.10942041    -0.17800
C1913       C  0.76432975  0.08511814  0.29970930    -0.16900
C1914       C  0.76981878  0.08923807  0.30866936     0.07200
C1915       C  0.77628288  0.09352650  0.31938795     0.09000
C1916       C  0.78162632  0.09710906  0.32866191    -0.17800
C1917       C  0.78452135  0.16984950  0.39873867    -0.16900
C1918       C  0.77995676  0.17957466  0.40222522     0.07200
C1919       C  0.77445473  0.19087068  0.40642029     0.09000
C1920       C  0.76977080  0.20030529  0.41049610    -0.17800
C1921       C  0.74213969  0.49868107  0.25952061    -0.14800
C1922       C  0.74913667  0.49132704  0.25216784    -0.30000
H1923       H  0.73529132  0.49457811  0.26576787     0.14200
H1924       H  0.75548656  0.49544820  0.24542297     0.14800
C1925       C  0.74312872  0.99120435  0.26061043    -0.14800
C1926       C  0.73574627  0.99848578  0.25353160    -0.30000
H1927       H  0.74988685  0.99543295  0.26686742     0.14200
H1928       H  0.72947018  0.99427066  0.24678336     0.14800
C1929       C  0.49806129  0.74691891  0.24911749    -0.14800
C1930       C  0.49080221  0.73933221  0.25600754    -0.30000
H1931       H  0.49384926  0.75396378  0.24317249     0.14200
H1932       H  0.49500082  0.73268474  0.26240476     0.14800
C1933       C  0.60174231  0.81716084  0.20779134    -0.16900
C1934       C  0.59776770  0.80767510  0.21243996     0.07200
C1935       C  0.59275016  0.79686806  0.21818313     0.09000
C1936       C  0.58789247  0.78798256  0.22316696    -0.17800
C1937       C  0.67052280  0.89148839  0.21272113    -0.16900
C1938       C  0.67975343  0.89523584  0.21802542     0.07200
C1939       C  0.69037333  0.89969098  0.22453814     0.09000
C1940       C  0.69918282  0.90394334  0.23016774    -0.17800
C1941       C  0.58442899  0.69951774  0.27598958    -0.16900
C1942       C  0.58889655  0.69050265  0.28108048    -0.09600
C1943       C  0.59372319  0.67971166  0.28698402     0.09000
C1944       C  0.59768998  0.67039727  0.29195318    -0.17800
C1945       C  0.67214982  0.60173050  0.30011805    -0.16900
C1946       C  0.68170256  0.59773663  0.29563880     0.07200
C1947       C  0.69262875  0.59289975  0.28997178     0.09000
C1948       C  0.70161366  0.58827770  0.28495436    -0.17800
C1949       C  0.78890076  0.90245773  0.28136209    -0.16900
C1950       C  0.79809884  0.89770147  0.28584150     0.07200
C1951       C  0.80913974  0.89265544  0.29108500     0.09000
C1952       C  0.81870495  0.88862291  0.29550240    -0.17800
C1953       C  0.99056196  0.73979874  0.25890953    -0.14800
C1954       C  0.99781247  0.73263561  0.25160904    -0.30000
H1955       H  0.99476907  0.74619481  0.26553890     0.14200
H1956       H  0.99363003  0.72659560  0.24463359     0.14800
C1957       C  0.90373875  0.78766481  0.28021026    -0.16900
C1958       C  0.89955495  0.79686907  0.28524129     0.07200
C1959       C  0.89511600  0.80788664  0.29110198     0.09000
C1960       C  0.89135663  0.81740812  0.29587410    -0.17800
C1961       C  0.89021257  0.66876632  0.21196589    -0.16900
C1962       C  0.89389667  0.67843399  0.21645849     0.07200
C1963       C  0.89841513  0.68953656  0.22203453     0.09000
C1964       C  0.90278597  0.69871578  0.22692215    -0.17800
C1965       C  0.82018203  0.59578038  0.21555333    -0.16900
C1966       C  0.81087093  0.59225676  0.22085973     0.07200
C1967       C  0.80005776  0.58815098  0.22726254     0.09000
C1968       C  0.79097714  0.58422659  0.23268596    -0.17800
C1969       C  0.90444188  0.90532261  0.36570612    -0.11700
C1970       C  0.89868637  0.89900866  0.35834456    -0.13200
C1971       C  0.85212255  0.08119661  0.41570829    -0.11700
C1972       C  0.84476343  0.08718847  0.40958948    -0.13200
C1973       C  0.91250819  0.99935350  0.42705865    -0.11700
C1974       C  0.91633998  0.98949091  0.42319792    -0.13200
C1975       C  0.89773956  0.14230552  0.59570696    -0.11700
C1976       C  0.90387294  0.13456473  0.59027214    -0.13200
C1977       C  0.91636010  0.07626277  0.50793198    -0.11700
C1978       C  0.91231627  0.07237105  0.49815762    -0.13200
C1979       C  0.08659846  0.84689022  0.40757212    -0.11700
C1980       C  0.08112198  0.85460496  0.41370657    -0.13200
C1981       C  0.99861369  0.91362755  0.42536059    -0.11700
C1982       C  0.98878948  0.91765517  0.42157166    -0.13200
C1983       C  0.13150429  0.90617219  0.59069956    -0.11700
C1984       C  0.13863332  0.89993980  0.59682730    -0.13200
C1985       C  0.07529634  0.91891715  0.50628272    -0.11700
C1986       C  0.07171764  0.91505029  0.49630630    -0.13200
C1987       C  0.08738203  0.08756168  0.65097208    -0.11700
C1988       C  0.08129671  0.08194318  0.64331846    -0.13200
C1989       C  0.98791205  0.07623187  0.58097311    -0.11700
C1990       C  0.99776528  0.07226831  0.58478076    -0.13200
C1991       C  0.06997775  0.99978204  0.58387722    -0.11700
C1992       C  0.07401463  0.99007442  0.57980738    -0.13200
C1993       C  0.90770871  0.35256315  0.91465133    -0.11700
C1994       C  0.90221745  0.34494360  0.90839843    -0.13200
C1995       C  0.84840451  0.39994654  0.09763823    -0.11700
C1996       C  0.85559202  0.40607982  0.09146335    -0.13200
C1997       C  0.91235312  0.41735035  0.00710035    -0.11700
C1998       C  0.91598054  0.41340556  0.99717583    -0.13200
C1999       C  0.90629330  0.58112899  0.14365719    -0.11700
C2000       C  0.90028696  0.58678024  0.15134932    -0.13200
C2001       C  0.91394169  0.48922885  0.07999320    -0.11700
C2002       C  0.91794217  0.49894590  0.08408956    -0.13200
C2003       C  0.08346550  0.40434624  0.86653493    -0.11700
C2004       C  0.08932331  0.39811360  0.85918935    -0.13200
C2005       C  0.98957922  0.41237936  0.92676283    -0.11700
C2006       C  0.99942648  0.41639357  0.92301287    -0.13200
C2007       C  0.13470145  0.58118876  0.91593076    -0.11700
C2008       C  0.14192000  0.58724981  0.90969593    -0.13200
C2009       C  0.07196760  0.48835645  0.92436714    -0.11700
C2010       C  0.07580693  0.49824530  0.92820622    -0.13200
C2011       C  0.09074715  0.64038641  0.09747711    -0.11700
C2012       C  0.08453105  0.63273101  0.09201249    -0.13200
C2013       C  0.07568583  0.57140121  0.99925512    -0.11700
C2014       C  0.07159466  0.57535228  0.00898741    -0.13200
C2015       C  0.98997260  0.57160348  0.08546138    -0.11700
C2016       C  0.99988171  0.57552262  0.08175186    -0.13200
C2017       C  0.35349742  0.90747761  0.91541527    -0.11700
C2018       C  0.34568301  0.90181905  0.90952147    -0.13200
C2019       C  0.40678801  0.85485771  0.09212317    -0.11700
C2020       C  0.40091566  0.84757988  0.09849568    -0.13200
C2021       C  0.41795737  0.91261398  0.00753155    -0.11700
C2022       C  0.41408543  0.91664645  0.99770821    -0.13200
C2023       C  0.58274124  0.90726127  0.14313785    -0.11700
C2024       C  0.58896410  0.90128433  0.15044012    -0.13200
C2025       C  0.48979640  0.91319328  0.08008636    -0.11700
C2026       C  0.49946053  0.91729363  0.08419569    -0.13200
C2027       C  0.40609982  0.08370405  0.86344987    -0.11700
C2028       C  0.40030872  0.08984846  0.85593784    -0.13200
C2029       C  0.41713117  0.99992048  0.92212599    -0.11700
C2030       C  0.41339218  0.98997159  0.92598442    -0.13200
C2031       C  0.58291138  0.13616025  0.91632928    -0.11700
C2032       C  0.58923411  0.14352492  0.91051925    -0.13200
C2033       C  0.49933769  0.07646696  0.92528058    -0.11700
C2034       C  0.48938483  0.07255695  0.92164656    -0.13200
C2035       C  0.63003782  0.08541097  0.09329596    -0.11700
C2036       C  0.63676418  0.09186610  0.09966988    -0.13200
C2037       C  0.57441319  0.00043283  0.08068222    -0.11700
C2038       C  0.57054352  0.99060928  0.08468936    -0.13200
C2039       C  0.56958694  0.07759651  0.99915975    -0.11700
C2040       C  0.57363463  0.07336101  0.00880787    -0.13200
C2041       C  0.40579199  0.63746050  0.41713972    -0.11700
C2042       C  0.39947306  0.64486199  0.41138424    -0.13200
C2043       C  0.58191308  0.58522154  0.36458629    -0.11700
C2044       C  0.58783176  0.59143731  0.35723423    -0.13200
C2045       C  0.49865798  0.57320250  0.42257682    -0.11700
C2046       C  0.48871907  0.57709435  0.42622888    -0.13200
C2047       C  0.63409397  0.40809088  0.41651691    -0.11700
C2048       C  0.64184794  0.40234163  0.41065443    -0.13200
C2049       C  0.57471797  0.49099575  0.42649082    -0.11700
C2050       C  0.57094884  0.50088466  0.42252527    -0.13200
C2051       C  0.58278535  0.35709397  0.59343586    -0.11700
C2052       C  0.58876595  0.34984096  0.59970864    -0.13200
C2053       C  0.57042061  0.41408756  0.50867449    -0.11700
C2054       C  0.57413421  0.41812732  0.49879917    -0.13200
C2055       C  0.35723088  0.58565124  0.59355550    -0.11700
C2056       C  0.35024783  0.59200923  0.59974649    -0.13200
C2057       C  0.41434598  0.57440571  0.50955158    -0.11700
C2058       C  0.41842365  0.57873277  0.49995476    -0.13200
C2059       C  0.40617279  0.40862139  0.64470932    -0.11700
C2060       C  0.40000712  0.40258108  0.65201612    -0.13200
C2061       C  0.48892080  0.41786193  0.58510251    -0.11700
C2062       C  0.49863792  0.41379283  0.58109996    -0.13200
C2063       C  0.41439693  0.50147835  0.58156147    -0.11700
C2064       C  0.41827486  0.49165476  0.58556635    -0.13200
loop_ 
_geom_bond_atom_site_label_1 
_geom_bond_atom_site_label_2 
_geom_bond_distance 
_geom_bond_site_symmetry_2 
_ccdc_geom_bond_type 
N1            N2   1.324       .  A
N1            C5   1.348       .  A
N1           Cu9   2.085       .  S
N2            C3   1.347       .  A
N2           Cu8   2.081       .  S
C3            C4   1.381       .  A
C3            H6   1.082       .  S
C4            C5   1.382       .  A
C4         C2059   1.444       .  S
C5            H7   1.082       .  S
Cu8          N11   2.080       .  S
Cu9          N19   2.085       .  S
Cu10         N12   2.077       .  S
Cu10         N18   2.078       .  S
N11          N12   1.324       .  A
N11          C15   1.347       .  A
N12          C13   1.346       .  A
C13          C14   1.380       .  A
C13          H16   1.082       .  S
C14          C15   1.380       .  A
C14        C2061   1.440       .  S
C15          H17   1.082       .  S
N18          N19   1.324       .  A
N18          C22   1.347       .  A
N19          C20   1.347       .  A
C20          C21   1.382       .  A
C20          H23   1.082       .  S
C21          C22   1.381       .  A
C21        C2064   1.443       .  S
C22          H24   1.082       .  S
N25          N26   1.324       .  A
N25          C29   1.347       .  A
N25         Cu33   2.084       .  S
N26          C27   1.347       .  A
N26         Cu32   2.081       .  S
C27          C28   1.381       .  A
C27          H30   1.082       .  S
C28          C29   1.381       .  A
C28        C2063   1.443       .  S
C29          H31   1.082       .  S
Cu32         N35   2.081       .  S
Cu33         N43   2.084       .  S
Cu34         N36   2.079       .  S
Cu34         N42   2.080       .  S
N35          N36   1.324       .  A
N35          C39   1.347       .  A
N36          C37   1.346       .  A
C37          C38   1.380       .  A
C37          H40   1.082       .  S
C38          C39   1.381       .  A
C38        C2057   1.441       .  S
C39          H41   1.082       .  S
N42          N43   1.324       .  A
N42          C46   1.347       .  A
N43          C44   1.348       .  A
C44          C45   1.382       .  A
C44          H47   1.082       .  S
C45          C46   1.381       .  A
C45        C2055   1.444       .  S
C46          H48   1.082       .  S
N49          N50   1.324       .  A
N49          C53   1.348       .  A
N49         Cu57   2.087       .  S
N50          C51   1.347       .  A
N50         Cu56   2.079       .  S
C51          C52   1.381       .  A
C51          H54   1.082       .  S
C52          C53   1.383       .  A
C52        C2051   1.444       .  S
C53          H55   1.082       .  S
Cu56         N59   2.078       .  S
Cu57         N67   2.087       .  S
Cu58         N60   2.075       .  S
Cu58         N66   2.075       .  S
N59          N60   1.323       .  A
N59          C63   1.346       .  A
N60          C61   1.346       .  A
C61          C62   1.380       .  A
C61          H64   1.082       .  S
C62          C63   1.380       .  A
C62        C2062   1.439       .  S
C63          H65   1.082       .  S
N66          N67   1.324       .  A
N66          C70   1.346       .  A
N67          C68   1.348       .  A
C68          C69   1.382       .  A
C68          H71   1.082       .  S
C69          C70   1.380       .  A
C69        C2053   1.442       .  S
C70          H72   1.082       .  S
N73          N74   1.324       .  A
N73          C77   1.347       .  A
N73         Cu81   2.083       .  S
N74          C75   1.347       .  A
N74         Cu80   2.080       .  S
C75          C76   1.380       .  A
C75          H78   1.082       .  S
C76          C77   1.382       .  A
C76        C2054   1.442       .  S
C77          H79   1.082       .  S
Cu80         N83   2.081       .  S
Cu81         N91   2.084       .  S
Cu82         N84   2.084       .  S
Cu82         N90   2.084       .  S
N83          N84   1.324       .  A
N83          C87   1.347       .  A
N84          C85   1.347       .  A
C85          C86   1.382       .  A
C85          H88   1.082       .  S
C86          C87   1.381       .  A
C86        C2047   1.444       .  S
C87          H89   1.082       .  S
N90          N91   1.324       .  A
N90          C94   1.347       .  A
N91          C92   1.348       .  A
C92          C93   1.382       .  A
C92          H95   1.082       .  S
C93          C94   1.381       .  A
C93        C2049   1.444       .  S
C94          H96   1.082       .  S
N97          N98   1.324       .  A
N97         C101   1.348       .  A
N97        Cu105   2.088       .  S
N98          C99   1.347       .  A
N98        Cu104   2.080       .  S
C99         C100   1.381       .  A
C99         H102   1.082       .  S
C100        C101   1.382       .  A
C100       C2050   1.444       .  S
C101        H103   1.082       .  S
Cu104       N107   2.080       .  S
Cu105       N115   2.088       .  S
Cu106       N108   2.078       .  S
Cu106       N114   2.078       .  S
N107        N108   1.323       .  A
N107        C111   1.347       .  A
N108        C109   1.346       .  A
C109        C110   1.380       .  A
C109        H112   1.082       .  S
C110        C111   1.381       .  A
C110       C2045   1.441       .  S
C111        H113   1.082       .  S
N114        N115   1.324       .  A
N114        C118   1.346       .  A
N115        C116   1.348       .  A
C116        C117   1.382       .  A
C116        H119   1.082       .  S
C117        C118   1.380       .  A
C117       C2043   1.443       .  S
C118        H120   1.082       .  S
N121        N122   1.324       .  A
N121        C125   1.349       .  A
N121       Cu129   2.090       .  S
N122        C123   1.347       .  A
N122       Cu128   2.081       .  S
C123        C124   1.380       .  A
C123        H126   1.082       .  S
C124        C125   1.383       .  A
C124       C2041   1.445       .  S
C125        H127   1.082       .  S
Cu128       N131   2.080       .  S
Cu129       N139   2.090       .  S
Cu130       N132   2.074       .  S
Cu130       N138   2.074       .  S
N131        N132   1.323       .  A
N131        C135   1.347       .  A
N132        C133   1.346       .  A
C133        C134   1.380       .  A
C133        H136   1.082       .  S
C134        C135   1.381       .  A
C134       C2058   1.441       .  S
C135        H137   1.082       .  S
N138        N139   1.324       .  A
N138        C142   1.346       .  A
N139        C140   1.348       .  A
C140        C141   1.383       .  A
C140        H143   1.082       .  S
C141        C142   1.379       .  A
C141       C2046   1.442       .  S
C142        H144   1.082       .  S
N145        N146   1.324       .  A
N145        C149   1.347       .  A
N145       Cu153   2.080       .  S
N146        C147   1.347       .  A
N146       Cu152   2.081       .  S
C147        C148   1.381       .  A
C147        H150   1.082       .  S
C148        C149   1.381       .  A
C148       C2037   1.441       .  S
C149        H151   1.082       .  S
Cu152       N155   2.082       .  S
Cu153       N163   2.080       .  S
Cu154       N156   2.080       .  S
Cu154       N162   2.080       .  S
N155        N156   1.323       .  A
N155        C159   1.347       .  A
N156        C157   1.347       .  A
C157        C158   1.381       .  A
C157        H160   1.082       .  S
C158        C159   1.381       .  A
C158       C2035   1.443       .  S
C159        H161   1.082       .  S
N162        N163   1.324       .  A
N162        C166   1.346       .  A
N163        C164   1.347       .  A
C164        C165   1.381       .  A
C164        H167   1.082       .  S
C165        C166   1.380       .  A
C165       C2040   1.441       .  S
C166        H168   1.082       .  S
N169        N170   1.324       .  A
N169        C173   1.346       .  A
N169       Cu177   2.076       .  S
N170        C171   1.349       .  A
N170       Cu176   2.091       .  S
C171        C172   1.383       .  A
C171        H174   1.082       .  S
C172        C173   1.379       .  A
C172       C2033   1.443       .  S
C173        H175   1.082       .  S
Cu176       N179   2.091       .  S
Cu177       N187   2.076       .  S
Cu178       N180   2.080       .  S
Cu178       N186   2.080       .  S
N179        N180   1.324       .  A
N179        C183   1.348       .  A
N180        C181   1.347       .  A
C181        C182   1.380       .  A
C181        H184   1.082       .  S
C182        C183   1.383       .  A
C182       C2031   1.445       .  S
C183        H185   1.082       .  S
N186        N187   1.323       .  A
N186        C190   1.347       .  A
N187        C188   1.346       .  A
C188        C189   1.380       .  A
C188        H191   1.082       .  S
C189        C190   1.381       .  A
C189       C2039   1.441       .  S
C190        H192   1.082       .  S
N193        N194   1.324       .  A
N193        C197   1.348       .  A
N193       Cu201   2.087       .  S
N194        C195   1.347       .  A
N194       Cu200   2.082       .  S
C195        C196   1.381       .  A
C195        H198   1.082       .  S
C196        C197   1.382       .  A
C196       C2029   1.444   1_545  S
C197        H199   1.082       .  S
Cu200       N203   2.082       .  S
Cu201       N211   2.087       .  S
Cu202       N204   2.080       .  S
Cu202       N210   2.079       .  S
N203        N204   1.323       .  A
N203        C207   1.347       .  A
N204        C205   1.347       .  A
C205        C206   1.381       .  A
C205        H208   1.082       .  S
C206        C207   1.382       .  A
C206       C2034   1.443       .  S
C207        H209   1.082       .  S
N210        N211   1.324       .  A
N210        C214   1.347       .  A
N211        C212   1.348       .  A
C212        C213   1.383       .  A
C212        H215   1.082       .  S
C213        C214   1.380       .  A
C213       C2027   1.444       .  S
C214        H216   1.082       .  S
N217        N218   1.323       .  A
N217        C221   1.347       .  A
N217       Cu225   2.083       .  S
N218        C219   1.346       .  A
N218       Cu224   2.076       .  S
C219        C220   1.380       .  A
C219        H222   1.082       .  S
C220        C221   1.381       .  A
C220       C2038   1.441       .  S
C221        H223   1.082       .  S
Cu224       N227   2.075       .  S
Cu225       N235   2.083       .  S
Cu226       N228   2.082       .  S
Cu226       N234   2.082       .  S
N227        N228   1.324       .  A
N227        C231   1.346       .  A
N228        C229   1.347       .  A
C229        C230   1.381       .  A
C229        H232   1.082       .  S
C230        C231   1.379       .  A
C230       C2026   1.439       .  S
C231        H233   1.082       .  S
N234        N235   1.324       .  A
N234        C238   1.348       .  A
N235        C236   1.347       .  A
C236        C237   1.381       .  A
C236        H239   1.082       .  S
C237        C238   1.382       .  A
C237       C2023   1.444       .  S
C238        H240   1.082       .  S
N241        N242   1.323       .  A
N241        C245   1.346       .  A
N241       Cu249   2.077       .  S
N242        C243   1.346       .  A
N242       Cu248   2.077       .  S
C243        C244   1.380       .  A
C243        H246   1.082       .  S
C244        C245   1.380       .  A
C244       C2025   1.439       .  S
C245        H247   1.082       .  S
Cu248       N251   2.077       .  S
Cu249       N259   2.078       .  S
Cu250       N252   2.090       .  S
Cu250       N258   2.091       .  S
N251        N252   1.324       .  A
N251        C255   1.347       .  A
N252        C253   1.348       .  A
C253        C254   1.382       .  A
C253        H256   1.082       .  S
C254        C255   1.380       .  A
C254       C2021   1.443       .  S
C255        H257   1.082       .  S
N258        N259   1.324       .  A
N258        C262   1.349       .  A
N259        C260   1.347       .  A
C260        C261   1.380       .  A
C260        H263   1.082       .  S
C261        C262   1.384       .  A
C261       C2019   1.445       .  S
C262        H264   1.082       .  S
N265        N266   1.324       .  A
N265        C269   1.348       .  A
N265       Cu273   2.085       .  S
N266        C267   1.347       .  A
N266       Cu272   2.084       .  S
C267        C268   1.382       .  A
C267        H270   1.082       .  S
C268        C269   1.382       .  A
C268       C2017   1.445       .  S
C269        H271   1.082       .  S
Cu272       N275   2.084       .  S
Cu273       N283   2.085       .  S
Cu274       N276   2.083       .  S
Cu274       N282   2.083       .  S
N275        N276   1.324       .  A
N275        C279   1.347       .  A
N276        C277   1.347       .  A
C277        C278   1.382       .  A
C277        H280   1.082       .  S
C278        C279   1.382       .  A
C278       C2030   1.444       .  S
C279        H281   1.082       .  S
N282        N283   1.324       .  A
N282        C286   1.347       .  A
N283        C284   1.347       .  A
C284        C285   1.381       .  A
C284        H287   1.082       .  S
C285        C286   1.381       .  A
C285       C2022   1.443       .  S
C286        H288   1.082       .  S
N289        N290   1.323       .  A
N289        C293   1.345       .  A
N289       Cu297   2.071       .  S
N290        C291   1.347       .  A
N290       Cu296   2.082       .  S
C291        C292   1.382       .  A
C291        H294   1.082       .  S
C292        C293   1.378       .  A
C292       C2012   1.439       .  S
C293        H295   1.082       .  S
Cu296       N299   2.083       .  S
Cu297       N307   2.071       .  S
Cu298       N300   2.078       .  S
Cu298       N306   2.078       .  S
N299        N300   1.324       .  A
N299        C303   1.347       .  A
N300        C301   1.346       .  A
C301        C302   1.380       .  A
C301        H304   1.082       .  S
C302        C303   1.381       .  A
C302       C2016   1.440   1_455  S
C303        H305   1.082       .  S
N306        N307   1.323       .  A
N306        C310   1.347       .  A
N307        C308   1.345       .  A
C308        C309   1.379       .  A
C308        H311   1.082       .  S
C309        C310   1.381       .  A
C309       C2014   1.439       .  S
C310        H312   1.082       .  S
N313        N314   1.324       .  A
N313        C317   1.347       .  A
N313       Cu321   2.082       .  S
N314        C315   1.347       .  A
N314       Cu320   2.082       .  S
C315        C316   1.381       .  A
C315        H318   1.082       .  S
C316        C317   1.381       .  A
C316       C2007   1.443       .  S
C317        H319   1.082       .  S
Cu320       N323   2.082       .  S
Cu321       N331   2.082       .  S
Cu322       N324   2.075       .  S
Cu322       N330   2.075       .  S
N323        N324   1.323       .  A
N323        C327   1.347       .  A
N324        C325   1.346       .  A
C325        C326   1.380       .  A
C325        H328   1.082       .  S
C326        C327   1.381       .  A
C326       C2010   1.441       .  S
C327        H329   1.082       .  S
N330        N331   1.323       .  A
N330        C334   1.346       .  A
N331        C332   1.347       .  A
C332        C333   1.381       .  A
C332        H335   1.082       .  S
C333        C334   1.379       .  A
C333       C2013   1.440       .  S
C334        H336   1.082       .  S
N337        N338   1.324       .  A
N337        C341   1.347       .  A
N337       Cu345   2.083       .  S
N338        C339   1.346       .  A
N338       Cu344   2.077       .  S
C339        C340   1.380       .  A
C339        H342   1.082       .  S
C340        C341   1.381       .  A
C340       C2009   1.441       .  S
C341        H343   1.082       .  S
Cu344       N347   2.077       .  S
Cu345       N355   2.083       .  S
Cu346       N348   2.074       .  S
Cu346       N354   2.074       .  S
N347        N348   1.323       .  A
N347        C351   1.346       .  A
N348        C349   1.346       .  A
C349        C350   1.380       .  A
C349        H352   1.082       .  S
C350        C351   1.381       .  A
C350       C2006   1.439   1_455  S
C351        H353   1.082       .  S
N354        N355   1.324       .  A
N354        C358   1.346       .  A
N355        C356   1.347       .  A
C356        C357   1.382       .  A
C356        H359   1.082       .  S
C357        C358   1.379       .  A
C357       C2003   1.440       .  S
C358        H360   1.082       .  S
N361        N362   1.324       .  A
N361        C365   1.347       .  A
N361       Cu369   2.080       .  S
N362        C363   1.346       .  A
N362       Cu368   2.078       .  S
C363        C364   1.380       .  A
C363        H366   1.082       .  S
C364        C365   1.380       .  A
C364       C2015   1.440       .  S
C365        H367   1.082       .  S
Cu368       N371   2.078       .  S
Cu369       N379   2.080       .  S
Cu370       N372   2.078       .  S
Cu370       N378   2.078       .  S
N371        N372   1.323       .  A
N371        C375   1.346       .  A
N372        C373   1.346       .  A
C373        C374   1.380       .  A
C373        H376   1.082       .  S
C374        C375   1.380       .  A
C374       C2002   1.440       .  S
C375        H377   1.082       .  S
N378        N379   1.323       .  A
N378        C382   1.346       .  A
N379        C380   1.347       .  A
C380        C381   1.381       .  A
C380        H383   1.082       .  S
C381        C382   1.380       .  A
C381       C1999   1.441       .  S
C382        H384   1.082       .  S
N385        N386   1.324       .  A
N385        C389   1.346       .  A
N385       Cu393   2.077       .  S
N386        C387   1.347       .  A
N386       Cu392   2.080       .  S
C387        C388   1.381       .  A
C387        H390   1.082       .  S
C388        C389   1.380       .  A
C388       C1997   1.441       .  S
C389        H391   1.082       .  S
Cu392       N395   2.080       .  S
Cu393       N403   2.077       .  S
Cu394       N396   2.078       .  S
Cu394       N402   2.078       .  S
N395        N396   1.323       .  A
N395        C399   1.347       .  A
N396        C397   1.346       .  A
C397        C398   1.380       .  A
C397        H400   1.082       .  S
C398        C399   1.381       .  A
C398       C2001   1.440       .  S
C399        H401   1.082       .  S
N402        N403   1.323       .  A
N402        C406   1.346       .  A
N403        C404   1.346       .  A
C404        C405   1.380       .  A
C404        H407   1.082       .  S
C405        C406   1.380       .  A
C405       C1996   1.440       .  S
C406        H408   1.082       .  S
N409        N410   1.323       .  A
N409        C413   1.346       .  A
N409       Cu417   2.076       .  S
N410        C411   1.346       .  A
N410       Cu416   2.074       .  S
C411        C412   1.380       .  A
C411        H414   1.082       .  S
C412        C413   1.381       .  A
C412       C2005   1.439       .  S
C413        H415   1.082       .  S
Cu416       N419   2.074       .  S
Cu417       N427   2.076       .  S
Cu418       N420   2.086       .  S
Cu418       N426   2.086       .  S
N419        N420   1.324       .  A
N419        C423   1.346       .  A
N420        C421   1.348       .  A
C421        C422   1.382       .  A
C421        H424   1.082       .  S
C422        C423   1.379       .  A
C422       C1998   1.441       .  S
C423        H425   1.082       .  S
N426        N427   1.324       .  A
N426        C430   1.348       .  A
N427        C428   1.346       .  A
C428        C429   1.379       .  A
C428        H431   1.082       .  S
C429        C430   1.382       .  A
C429       C1993   1.441       .  S
C430        H432   1.082       .  S
N433        N434   1.323       .  A
N433        C437   1.346       .  A
N433       Cu441   2.075       .  S
N434        C435   1.347       .  A
N434       Cu440   2.080       .  S
C435        C436   1.381       .  A
C435        H438   1.082       .  S
C436        C437   1.380       .  A
C436       C1991   1.440   1_545  S
C437        H439   1.082       .  S
Cu440       N443   2.080       .  S
Cu441       N451   2.075       .  S
Cu442       N444   2.081       .  S
Cu442       N450   2.081       .  S
N443        N444   1.324       .  A
N443        C447   1.347       .  A
N444        C445   1.347       .  A
C445        C446   1.381       .  A
C445        H448   1.082       .  S
C446        C447   1.381       .  A
C446       C1990   1.441   1_455  S
C447        H449   1.082       .  S
N450        N451   1.323       .  A
N450        C454   1.347       .  A
N451        C452   1.346       .  A
C452        C453   1.379       .  A
C452        H455   1.082       .  S
C453        C454   1.381       .  A
C453       C1988   1.440       .  S
C454        H456   1.082       .  S
N457        N458   1.323       .  A
N457        C461   1.346       .  A
N457       Cu465   2.076       .  S
N458        C459   1.346       .  A
N458       Cu464   2.079       .  S
C459        C460   1.381       .  A
C459        H462   1.082       .  S
C460        C461   1.380       .  A
C460       C1983   1.440       .  S
C461        H463   1.082       .  S
Cu464       N467   2.079       .  S
Cu465       N475   2.077       .  S
Cu466       N468   2.080       .  S
Cu466       N474   2.080       .  S
N467        N468   1.324       .  A
N467        C471   1.347       .  A
N468        C469   1.347       .  A
C469        C470   1.381       .  A
C469        H472   1.082       .  S
C470        C471   1.381       .  A
C470       C1992   1.440       .  S
C471        H473   1.082       .  S
N474        N475   1.323       .  A
N474        C478   1.347       .  A
N475        C476   1.346       .  A
C476        C477   1.380       .  A
C476        H479   1.082       .  S
C477        C478   1.381       .  A
C477       C1985   1.441       .  S
C478        H480   1.082       .  S
N481        N482   1.323       .  A
N481        C485   1.346       .  A
N481       Cu489   2.075       .  S
N482        C483   1.347       .  A
N482       Cu488   2.077       .  S
C483        C484   1.381       .  A
C483        H486   1.082       .  S
C484        C485   1.380       .  A
C484       C1981   1.440   1_455  S
C485        H487   1.082       .  S
Cu488       N491   2.077       .  S
Cu489       N499   2.075       .  S
Cu490       N492   2.085       .  S
Cu490       N498   2.085       .  S
N491        N492   1.324       .  A
N491        C495   1.346       .  A
N492        C493   1.348       .  A
C493        C494   1.382       .  A
C493        H496   1.082       .  S
C494        C495   1.379       .  A
C494       C1980   1.441       .  S
C495        H497   1.082       .  S
N498        N499   1.323       .  A
N498        C502   1.348       .  A
N499        C500   1.346       .  A
C500        C501   1.379       .  A
C500        H503   1.082       .  S
C501        C502   1.382       .  A
C501       C1986   1.441       .  S
C502        H504   1.082       .  S
N505        N506   1.324       .  A
N505        C509   1.347       .  A
N505       Cu513   2.085       .  S
N506        C507   1.346       .  A
N506       Cu512   2.079       .  S
C507        C508   1.380       .  A
C507        H510   1.082       .  S
C508        C509   1.381       .  A
C508       C1989   1.441       .  S
C509        H511   1.082       .  S
Cu512       N515   2.079       .  S
Cu513       N523   2.085       .  S
Cu514       N516   2.071       .  S
Cu514       N522   2.071       .  S
N515        N516   1.323       .  A
N515        C519   1.347       .  A
N516        C517   1.345       .  A
C517        C518   1.379       .  A
C517        H520   1.082       .  S
C518        C519   1.381       .  A
C518       C1977   1.439       .  S
C519        H521   1.082       .  S
N522        N523   1.323       .  A
N522        C526   1.345       .  A
N523        C524   1.348       .  A
C524        C525   1.382       .  A
C524        H527   1.082       .  S
C525        C526   1.379       .  A
C525       C1976   1.440       .  S
C526        H528   1.082       .  S
N529        N530   1.323       .  A
N529        C533   1.346       .  A
N529       Cu537   2.079       .  S
N530        C531   1.346       .  A
N530       Cu536   2.073       .  S
C531        C532   1.379       .  A
C531        H534   1.082       .  S
C532        C533   1.380       .  A
C532       C1973   1.438   1_545  S
C533        H535   1.082       .  S
Cu536       N539   2.072       .  S
Cu537       N547   2.080       .  S
Cu538       N540   2.081       .  S
Cu538       N546   2.081       .  S
N539        N540   1.323       .  A
N539        C543   1.345       .  A
N540        C541   1.347       .  A
C541        C542   1.381       .  A
C541        H544   1.082       .  S
C542        C543   1.379       .  A
C542       C1978   1.439       .  S
C543        H545   1.082       .  S
N546        N547   1.324       .  A
N546        C550   1.347       .  A
N547        C548   1.347       .  A
C548        C549   1.381       .  A
C548        H551   1.082       .  S
C549        C550   1.381       .  A
C549       C1971   1.442       .  S
C550        H552   1.082       .  S
N553        N554   1.323       .  A
N553        C557   1.346       .  A
N553       Cu561   2.075       .  S
N554        C555   1.346       .  A
N554       Cu560   2.076       .  S
C555        C556   1.381       .  A
C555        H558   1.082       .  S
C556        C557   1.380       .  A
C556       C1982   1.440       .  S
C557        H559   1.082       .  S
Cu560       N563   2.076       .  S
Cu561       N571   2.075       .  S
Cu562       N564   2.080       .  S
Cu562       N570   2.081       .  S
N563        N564   1.324       .  A
N563        C567   1.346       .  A
N564        C565   1.346       .  A
C565        C566   1.380       .  A
C565        H568   1.082       .  S
C566        C567   1.379       .  A
C566       C1974   1.439       .  S
C567        H569   1.082       .  S
N570        N571   1.324       .  A
N570        C574   1.347       .  A
N571        C572   1.345       .  A
C572        C573   1.379       .  A
C572        H575   1.082       .  S
C573        C574   1.382       .  A
C573       C1969   1.440       .  S
C574        H576   1.082       .  S
N577        N578   1.323       .  A
N577        C581   1.344       .  A
N577       Cu585   2.067       .  S
N578        C579   1.349       .  A
N578       Cu584   2.087       .  S
C579        C580   1.384       .  A
C579        H582   1.082       .  S
C580        C581   1.377       .  A
C580       C1965   1.440       .  S
C581        H583   1.082       .  S
Cu584       N587   2.088       .  S
Cu585       N595   2.068       .  S
Cu586       N588   2.081       .  S
Cu586       N594   2.081       .  S
N587        N588   1.325       .  A
N587        C591   1.348       .  A
N588        C589   1.346       .  A
C589        C590   1.379       .  A
C589        H592   1.082       .  S
C590        C591   1.381       .  A
C590       C2000   1.441       .  S
C591        H593   1.082       .  S
N594        N595   1.322       .  A
N594        C598   1.348       .  A
N595        C596   1.345       .  A
C596        C597   1.379       .  A
C596        H599   1.082       .  S
C597        C598   1.383       .  A
C597       C1961   1.441       .  S
C598        H600   1.082       .  S
N601        N602   1.324       .  A
N601        C605   1.350       .  A
N601       Cu609   2.097       .  S
N602        C603   1.344       .  A
N602       Cu608   2.069       .  S
C603        C604   1.377       .  A
C603        H606   1.082       .  S
C604        C605   1.385       .  A
C604       C1957   1.444       .  S
C605        H607   1.081       .  S
Cu608       N611   2.068       .  S
Cu609       N619   2.097       .  S
Cu610       N612   2.066       .  S
Cu610       N618   2.067       .  S
N611        N612   1.320       .  A
N611        C615   1.344       .  A
N612        C613   1.345       .  A
C613        C614   1.385       .  A
C613        H616   1.081       .  S
C614        C615   1.381       .  A
C614       C1953   1.474       .  S
C615        H617   1.081       .  S
N618        N619   1.324       .  A
N618        C622   1.344       .  A
N619        C620   1.350       .  A
C620        C621   1.384       .  A
C620        H623   1.082       .  S
C621        C622   1.377       .  A
C621       C1964   1.441       .  S
C622        H624   1.082       .  S
N625        N626   1.323       .  A
N625        C629   1.346       .  A
N625       Cu633   2.076       .  S
N626        C627   1.349       .  A
N626       Cu632   2.090       .  S
C627        C628   1.384       .  A
C627        H630   1.082       .  S
C628        C629   1.379       .  A
C628       C1960   1.444       .  S
C629        H631   1.082       .  S
Cu632       N635   2.089       .  S
Cu633       N643   2.076       .  S
Cu634       N636   2.077       .  S
Cu634       N642   2.077       .  S
N635        N636   1.325       .  A
N635        C639   1.348       .  A
N636        C637   1.346       .  A
C637        C638   1.379       .  A
C637        H640   1.082       .  S
C638        C639   1.382       .  A
C638       C1970   1.440       .  S
C639        H641   1.082       .  S
N642        N643   1.323       .  A
N642        C646   1.347       .  A
N643        C644   1.346       .  A
C644        C645   1.380       .  A
C644        H647   1.082       .  S
C645        C646   1.381       .  A
C645       C1952   1.441       .  S
C646        H648   1.082       .  S
N649        N650   1.324       .  A
N649        C653   1.345       .  A
N649       Cu657   2.073       .  S
N650        C651   1.347       .  A
N650       Cu656   2.084       .  S
C651        C652   1.382       .  A
C651        H654   1.082       .  S
C652        C653   1.379       .  A
C652       C1944   1.440       .  S
C653        H655   1.082       .  S
Cu656       N659   2.085       .  S
Cu657       N667   2.073       .  S
Cu658       N660   2.082       .  S
Cu658       N666   2.082       .  S
N659        N660   1.324       .  A
N659        C663   1.348       .  A
N660        C661   1.346       .  A
C661        C662   1.380       .  A
C661        H664   1.082       .  S
C662        C663   1.382       .  A
C662       C2044   1.443       .  S
C663        H665   1.082       .  S
N666        N667   1.323       .  A
N666        C670   1.348       .  A
N667        C668   1.345       .  A
C668        C669   1.379       .  A
C668        H671   1.082       .  S
C669        C670   1.383       .  A
C669       C1945   1.442       .  S
C670        H672   1.082       .  S
N673        N674   1.323       .  A
N673        C677   1.345       .  A
N673       Cu681   2.069       .  S
N674        C675   1.349       .  A
N674       Cu680   2.090       .  S
C675        C676   1.384       .  A
C675        H678   1.082       .  S
C676        C677   1.378       .  A
C676       C1937   1.442       .  S
C677        H679   1.082       .  S
Cu680       N683   2.090       .  S
Cu681       N691   2.069       .  S
Cu682       N684   2.084       .  S
Cu682       N690   2.084       .  S
N683        N684   1.325       .  A
N683        C687   1.348       .  A
N684        C685   1.347       .  A
C685        C686   1.381       .  A
C685        H688   1.082       .  S
C686        C687   1.382       .  A
C686       C2024   1.444       .  S
C687        H689   1.082       .  S
N690        N691   1.323       .  A
N690        C694   1.348       .  A
N691        C692   1.345       .  A
C692        C693   1.379       .  A
C692        H695   1.082       .  S
C693        C694   1.383       .  A
C693       C1933   1.440       .  S
C694        H696   1.082       .  S
N697        N698   1.324       .  A
N697        C701   1.348       .  A
N697       Cu705   2.085       .  S
N698        C699   1.344       .  A
N698       Cu704   2.069       .  S
C699        C700   1.378       .  A
C699        H702   1.082       .  S
C700        C701   1.382       .  A
C700       C1941   1.439       .  S
C701        H703   1.082       .  S
Cu704       N707   2.068       .  S
Cu705       N715   2.085       .  S
Cu706       N708   2.074       .  S
Cu706       N714   2.074       .  S
N707        N708   1.321       .  A
N707        C711   1.344       .  A
N708        C709   1.345       .  A
C709        C710   1.383       .  A
C709        H712   1.081       .  S
C710        C711   1.385       .  A
C710       C1929   1.476       .  S
C711        H713   1.081       .  S
N714        N715   1.324       .  A
N714        C718   1.345       .  A
N715        C716   1.348       .  A
C716        C717   1.382       .  A
C716        H719   1.082       .  S
C717        C718   1.378       .  A
C717       C1936   1.440       .  S
C718        H720   1.082       .  S
N721        N722   1.324       .  A
N721        C725   1.349       .  A
N721       Cu729   2.090       .  S
N722        C723   1.344       .  A
N722       Cu728   2.074       .  S
C723        C724   1.378       .  A
C723        H726   1.082       .  S
C724        C725   1.384       .  A
C724       C1940   1.442       .  S
C725        H727   1.082       .  S
Cu728       N731   2.074       .  S
Cu729       N739   2.090       .  S
Cu730       N732   2.074       .  S
Cu730       N738   2.074       .  S
N731        N732   1.321       .  A
N731        C735   1.346       .  A
N732        C733   1.345       .  A
C733        C734   1.383       .  A
C733        H736   1.081       .  S
C734        C735   1.387       .  A
C734       C1925   1.479       .  S
C735        H737   1.081       .  S
N738        N739   1.324       .  A
N738        C742   1.345       .  A
N739        C740   1.349       .  A
C740        C741   1.383       .  A
C740        H743   1.081       .  S
C741        C742   1.378       .  A
C741       C1949   1.441       .  S
C742        H744   1.082       .  S
N745        N746   1.324       .  A
N745        C749   1.350       .  A
N745       Cu753   2.093       .  S
N746        C747   1.344       .  A
N746       Cu752   2.069       .  S
C747        C748   1.377       .  A
C747        H750   1.082       .  S
C748        C749   1.385       .  A
C748       C1948   1.442       .  S
C749        H751   1.081       .  S
Cu752       N755   2.069       .  S
Cu753       N763   2.093       .  S
Cu754       N756   2.067       .  S
Cu754       N762   2.067       .  S
N755        N756   1.320       .  A
N755        C759   1.344       .  A
N756        C757   1.345       .  A
C757        C758   1.385       .  A
C757        H760   1.081       .  S
C758        C759   1.382       .  A
C758       C1921   1.475       .  S
C759        H761   1.081       .  S
N762        N763   1.324       .  A
N762        C766   1.344       .  A
N763        C764   1.349       .  A
C764        C765   1.384       .  A
C764        H767   1.082       .  S
C765        C766   1.376       .  A
C765       C1968   1.440       .  S
C766        H768   1.082       .  S
N769        N770   1.323       .  A
N769        C773   1.344       .  A
N769       Cu777   2.070       .  S
N770        C771   1.349       .  A
N770       Cu776   2.087       .  S
C771        C772   1.384       .  A
C771        H774   1.082       .  S
C772        C773   1.378       .  A
C772       C1916   1.442       .  S
C773        H775   1.082       .  S
Cu776       N779   2.088       .  S
Cu777       N787   2.070       .  S
Cu778       N780   2.089       .  S
Cu778       N786   2.088       .  S
N779        N780   1.326       .  A
N779        C783   1.348       .  A
N780        C781   1.347       .  A
C781        C782   1.380       .  A
C781        H784   1.082       .  S
C782        C783   1.381       .  A
C782       C1972   1.442       .  S
C783        H785   1.082       .  S
N786        N787   1.322       .  A
N786        C790   1.349       .  A
N787        C788   1.345       .  A
C788        C789   1.379       .  A
C788        H791   1.082       .  S
C789        C790   1.385       .  A
C789       C1917   1.444       .  S
C790        H792   1.082       .  S
N793        N794   1.323       .  A
N793        C797   1.347       .  A
N793       Cu801   2.078       .  S
N794        C795   1.347       .  A
N794       Cu800   2.083       .  S
C795        C796   1.382       .  A
C795        H798   1.082       .  S
C796        C797   1.381       .  A
C796       C1905   1.443       .  S
C797        H799   1.082       .  S
Cu800       N803   2.083       .  S
Cu801       N811   2.078       .  S
Cu802       N804   2.087       .  S
Cu802       N810   2.087       .  S
N803        N804   1.325       .  A
N803        C807   1.347       .  A
N804        C805   1.347       .  A
C805        C806   1.381       .  A
C805        H808   1.082       .  S
C806        C807   1.381       .  A
C806       C2036   1.443       .  S
C807        H809   1.082       .  S
N810        N811   1.323       .  A
N810        C814   1.349       .  A
N811        C812   1.346       .  A
C812        C813   1.380       .  A
C812        H815   1.082       .  S
C813        C814   1.384       .  A
C813       C1912   1.444       .  S
C814        H816   1.082       .  S
N817        N818   1.323       .  A
N817        C821   1.345       .  A
N817       Cu825   2.072       .  S
N818        C819   1.349       .  A
N818       Cu824   2.088       .  S
C819        C820   1.384       .  A
C819        H822   1.082       .  S
C820        C821   1.378       .  A
C820       C1897   1.442       .  S
C821        H823   1.082       .  S
Cu824       N827   2.088       .  S
Cu825       N835   2.072       .  S
Cu826       N828   2.086       .  S
Cu826       N834   2.085       .  S
N827        N828   1.325       .  A
N827        C831   1.348       .  A
N828        C829   1.348       .  A
C829        C830   1.381       .  A
C829        H832   1.082       .  S
C830        C831   1.382       .  A
C830       C2048   1.444       .  S
C831        H833   1.082       .  S
N834        N835   1.323       .  A
N834        C838   1.348       .  A
N835        C836   1.345       .  A
C836        C837   1.379       .  A
C836        H839   1.082       .  S
C837        C838   1.383       .  A
C837       C1901   1.442       .  S
C838        H840   1.082       .  S
N841        N842   1.323       .  A
N841        C845   1.346       .  A
N841       Cu849   2.075       .  S
N842        C843   1.348       .  A
N842       Cu848   2.082       .  S
C843        C844   1.383       .  A
C843        H846   1.082       .  S
C844        C845   1.380       .  A
C844       C1892   1.443       .  S
C845        H847   1.082       .  S
Cu848       N851   2.083       .  S
Cu849       N859   2.075       .  S
Cu850       N852   2.086       .  S
Cu850       N858   2.086       .  S
N851        N852   1.325       .  A
N851        C855   1.347       .  A
N852        C853   1.347       .  A
C853        C854   1.380       .  A
C853        H856   1.082       .  S
C854        C855   1.380       .  A
C854       C1995   1.441       .  S
C855        H857   1.082       .  S
N858        N859   1.323       .  A
N858        C862   1.349       .  A
N859        C860   1.346       .  A
C860        C861   1.380       .  A
C860        H863   1.082       .  S
C861        C862   1.384       .  A
C861       C1896   1.444       .  S
C862        H864   1.082       .  S
N865        N866   1.324       .  A
N865        C869   1.351       .  A
N865       Cu873   2.098       .  S
N866        C867   1.344       .  A
N866       Cu872   2.070       .  S
C867        C868   1.377       .  A
C867        H870   1.082       .  S
C868        C869   1.386       .  A
C868       C1893   1.444       .  S
C869        H871   1.081       .  S
Cu872       N875   2.070       .  S
Cu873       N883   2.098       .  S
Cu874       N876   2.067       .  S
Cu874       N882   2.067       .  S
N875        N876   1.321       .  A
N875        C879   1.345       .  A
N876        C877   1.344       .  A
C877        C878   1.385       .  A
C877        H880   1.081       .  S
C878        C879   1.382       .  A
C878       C1922   1.475       .  S
C879        H881   1.081       .  S
N882        N883   1.324       .  A
N882        C886   1.344       .  A
N883        C884   1.350       .  A
C884        C885   1.384       .  A
C884        H887   1.082       .  S
C885        C886   1.377       .  A
C885       C1900   1.442       .  S
C886        H888   1.082       .  S
N889        N890   1.324       .  A
N889        C893   1.349       .  A
N889       Cu897   2.095       .  S
N890        C891   1.345       .  A
N890       Cu896   2.072       .  S
C891        C892   1.379       .  A
C891        H894   1.082       .  S
C892        C893   1.384       .  A
C892       C1889   1.443       .  S
C893        H895   1.082       .  S
Cu896       N899   2.071       .  S
Cu897       N907   2.095       .  S
Cu898       N900   2.073       .  S
Cu898       N906   2.073       .  S
N899        N900   1.321       .  A
N899        C903   1.345       .  A
N900        C901   1.345       .  A
C901        C902   1.382       .  A
C901        H904   1.081       .  S
C902        C903   1.385       .  A
C902       C1886   1.476       .  S
C903        H905   1.081       .  S
N906        N907   1.324       .  A
N906        C910   1.345       .  A
N907        C908   1.350       .  A
C908        C909   1.385       .  A
C908        H911   1.081       .  S
C909        C910   1.378       .  A
C909       C1909   1.444       .  S
C910        H912   1.082       .  S
N913        N914   1.324       .  A
N913        C917   1.349       .  A
N913       Cu921   2.090       .  S
N914        C915   1.344       .  A
N914       Cu920   2.074       .  S
C915        C916   1.378       .  A
C915        H918   1.082       .  S
C916        C917   1.384       .  A
C916       C1913   1.442       .  S
C917        H919   1.082       .  S
Cu920       N923   2.074       .  S
Cu921       N931   2.090       .  S
Cu922       N924   2.076       .  S
Cu922       N930   2.077       .  S
N923        N924   1.321       .  A
N923        C927   1.346       .  A
N924        C925   1.346       .  A
C925        C926   1.383       .  A
C925        H928   1.081       .  S
C926        C927   1.387       .  A
C926       C1926   1.479   1_545  S
C927        H929   1.081       .  S
N930        N931   1.324       .  A
N930        C934   1.346       .  A
N931        C932   1.349       .  A
C932        C933   1.383       .  A
C932        H935   1.081       .  S
C933        C934   1.379       .  A
C933       C1908   1.443       .  S
C934        H936   1.082       .  S
N937        N938   1.324       .  A
N937        C941   1.351       .  A
N937       Cu945   2.099       .  S
N938        C939   1.344       .  A
N938       Cu944   2.069       .  S
C939        C940   1.377       .  A
C939        H942   1.082       .  S
C940        C941   1.386       .  A
C940       C1920   1.444       .  S
C941        H943   1.081       .  S
Cu944       N947   2.068       .  S
Cu945       N955   2.099       .  S
Cu946       N948   2.067       .  S
Cu946       N954   2.068       .  S
N947        N948   1.320       .  A
N947        C951   1.344       .  A
N948        C949   1.345       .  A
C949        C950   1.386       .  A
C949        H952   1.081       .  S
C950        C951   1.382       .  A
C950       C1881   1.475       .  S
C951        H953   1.081       .  S
N954        N955   1.325       .  A
N954        C958   1.344       .  A
N955        C956   1.350       .  A
C956        C957   1.385       .  A
C956        H959   1.082       .  S
C957        C958   1.376       .  A
C957       C1904   1.442       .  S
C958        H960   1.082       .  S
N961        N962   1.323       .  A
N961        C965   1.344       .  A
N961       Cu969   2.067       .  S
N962        C963   1.348       .  A
N962       Cu968   2.082       .  S
C963        C964   1.383       .  A
C963        H966   1.082       .  S
C964        C965   1.378       .  A
C964       C1877   1.439       .  S
C965        H967   1.082       .  S
Cu968       N971   2.082       .  S
Cu969       N979   2.068       .  S
Cu970       N972   2.092       .  S
Cu970       N978   2.092       .  S
N971        N972   1.325       .  A
N971        C975   1.347       .  A
N972        C973   1.349       .  A
C973        C974   1.383       .  A
C973        H976   1.082       .  S
C974        C975   1.380       .  A
C974       C2032   1.445       .  S
C975        H977   1.082       .  S
N978        N979   1.323       .  A
N978        C982   1.349       .  A
N979        C980   1.345       .  A
C980        C981   1.378       .  A
C980        H983   1.082       .  S
C981        C982   1.384       .  A
C981       C1873   1.442       .  S
C982        H984   1.082       .  S
N985        N986   1.323       .  A
N985        C989   1.344       .  A
N985       Cu993   2.068       .  S
N986        C987   1.349       .  A
N986       Cu992   2.089       .  S
C987        C988   1.384       .  A
C987        H990   1.082       .  S
C988        C989   1.377       .  A
C988       C1869   1.441       .  S
C989        H991   1.082       .  S
Cu992       N995   2.090       .  S
Cu993      N1003   2.068       .  S
Cu994       N996   2.078       .  S
Cu994      N1002   2.078       .  S
N995        N996   1.325       .  A
N995        C999   1.348       .  A
N996        C997   1.346       .  A
C997        C998   1.379       .  A
C997       H1000   1.082       .  S
C998        C999   1.382       .  A
C998       C1994   1.441       .  S
C999       H1001   1.082       .  S
N1002      N1003   1.322       .  A
N1002      C1006   1.347       .  A
N1003      C1004   1.345       .  A
C1004      C1005   1.379       .  A
C1004      H1007   1.082       .  S
C1005      C1006   1.382       .  A
C1005      C1865   1.439       .  S
C1006      H1008   1.082       .  S
N1009      N1010   1.324       .  A
N1009      C1013   1.349       .  A
N1009     Cu1017   2.089       .  S
N1010      C1011   1.344       .  A
N1010     Cu1016   2.071       .  S
C1011      C1012   1.377       .  A
C1011      H1014   1.082       .  S
C1012      C1013   1.383       .  A
C1012      C1868   1.439       .  S
C1013      H1015   1.081       .  S
Cu1016     N1019   2.071       .  S
Cu1017     N1027   2.089       .  S
Cu1018     N1020   2.068       .  S
Cu1018     N1026   2.069       .  S
N1019      N1020   1.321       .  A
N1019      C1023   1.345       .  A
N1020      C1021   1.344       .  A
C1021      C1022   1.385       .  A
C1021      H1024   1.081       .  S
C1022      C1023   1.383       .  A
C1022      C1885   1.476       .  S
C1023      H1025   1.081       .  S
N1026      N1027   1.323       .  A
N1026      C1030   1.345       .  A
N1027      C1028   1.349       .  A
C1028      C1029   1.384       .  A
C1028      H1031   1.082       .  S
C1029      C1030   1.378       .  A
C1029      C1876   1.441       .  S
C1030      H1032   1.082       .  S
N1033      N1034   1.323       .  A
N1033      C1037   1.346       .  A
N1033     Cu1041   2.074       .  S
N1034      C1035   1.347       .  A
N1034     Cu1040   2.079       .  S
C1035      C1036   1.381       .  A
C1035      H1038   1.082       .  S
C1036      C1037   1.380       .  A
C1036      C1860   1.440       .  S
C1037      H1039   1.082       .  S
Cu1040     N1043   2.079       .  S
Cu1041     N1051   2.074       .  S
Cu1042     N1044   2.088       .  S
Cu1042     N1050   2.088       .  S
N1043      N1044   1.324       .  A
N1043      C1047   1.347       .  A
N1044      C1045   1.348       .  A
C1045      C1046   1.383       .  A
C1045      H1048   1.082       .  S
C1046      C1047   1.380       .  A
C1046      C2052   1.444       .  S
C1047      H1049   1.082       .  S
N1050      N1051   1.324       .  A
N1050      C1054   1.348       .  A
N1051      C1052   1.346       .  A
C1052      C1053   1.379       .  A
C1052      H1055   1.082       .  S
C1053      C1054   1.383       .  A
C1053      C1861   1.442       .  S
C1054      H1056   1.082       .  S
N1057      N1058   1.323       .  A
N1057      C1061   1.345       .  A
N1057     Cu1065   2.073       .  S
N1058      C1059   1.346       .  A
N1058     Cu1064   2.075       .  S
C1059      C1060   1.381       .  A
C1059      H1062   1.082       .  S
C1060      C1061   1.379       .  A
C1060      C1853   1.439       .  S
C1061      H1063   1.082       .  S
Cu1064     N1067   2.076       .  S
Cu1065     N1075   2.073       .  S
Cu1066     N1068   2.088       .  S
Cu1066     N1074   2.088       .  S
N1067      N1068   1.325       .  A
N1067      C1071   1.346       .  A
N1068      C1069   1.348       .  A
C1069      C1070   1.382       .  A
C1069      H1072   1.082       .  S
C1070      C1071   1.378       .  A
C1070      C1975   1.440       .  S
C1071      H1073   1.082       .  S
N1074      N1075   1.323       .  A
N1074      C1078   1.349       .  A
N1075      C1076   1.345       .  A
C1076      C1077   1.379       .  A
C1076      H1079   1.082       .  S
C1077      C1078   1.384       .  A
C1077      C1849   1.443       .  S
C1078      H1080   1.082       .  S
N1081      N1082   1.325       .  A
N1081      C1085   1.348       .  A
N1081     Cu1089   2.090       .  S
N1082      C1083   1.344       .  A
N1082     Cu1088   2.071       .  S
C1083      C1084   1.377       .  A
C1083      H1086   1.082       .  S
C1084      C1085   1.382       .  A
C1084      C1857   1.440       .  S
C1085      H1087   1.081       .  S
Cu1088     N1091   2.070       .  S
Cu1089     N1099   2.090       .  S
Cu1090     N1092   2.069       .  S
Cu1090     N1098   2.069       .  S
N1091      N1092   1.321       .  A
N1091      C1095   1.346       .  A
N1092      C1093   1.344       .  A
C1093      C1094   1.385       .  A
C1093      H1096   1.081       .  S
C1094      C1095   1.383       .  A
C1094      C1882   1.477       .  S
C1095      H1097   1.081       .  S
N1098      N1099   1.323       .  A
N1098      C1102   1.345       .  A
N1099      C1100   1.349       .  A
C1100      C1101   1.384       .  A
C1100      H1103   1.082       .  S
C1101      C1102   1.378       .  A
C1101      C1852   1.443       .  S
C1102      H1104   1.082       .  S
N1105      N1106   1.323       .  A
N1105      C1109   1.349       .  A
N1105     Cu1113   2.089       .  S
N1106      C1107   1.343       .  A
N1106     Cu1112   2.062       .  S
C1107      C1108   1.377       .  A
C1107      H1110   1.082       .  S
C1108      C1109   1.384       .  A
C1108      C1872   1.440       .  S
C1109      H1111   1.082       .  S
Cu1112     N1115   2.061       .  S
Cu1113     N1123   2.090       .  S
Cu1114     N1116   2.070       .  S
Cu1114     N1122   2.071       .  S
N1115      N1116   1.320       .  A
N1115      C1119   1.342       .  A
N1116      C1117   1.345       .  A
C1117      C1118   1.383       .  A
C1117      H1120   1.081       .  S
C1118      C1119   1.384       .  A
C1118      C1845   1.475       .  S
C1119      H1121   1.081       .  S
N1122      N1123   1.325       .  A
N1122      C1126   1.344       .  A
N1123      C1124   1.348       .  A
C1124      C1125   1.382       .  A
C1124      H1127   1.081       .  S
C1125      C1126   1.377       .  A
C1125      C1856   1.439       .  S
C1126      H1128   1.082       .  S
N1129      N1130   1.324       .  A
N1129      C1133   1.349       .  A
N1129     Cu1137   2.090       .  S
N1130      C1131   1.344       .  A
N1130     Cu1136   2.069       .  S
C1131      C1132   1.377       .  A
C1131      H1134   1.082       .  S
C1132      C1133   1.383       .  A
C1132      C1880   1.439       .  S
C1133      H1135   1.082       .  S
Cu1136     N1139   2.069       .  S
Cu1137     N1147   2.089       .  S
Cu1138     N1140   2.069       .  S
Cu1138     N1146   2.070       .  S
N1139      N1140   1.321       .  A
N1139      C1143   1.345       .  A
N1140      C1141   1.344       .  A
C1141      C1142   1.385       .  A
C1141      H1144   1.081       .  S
C1142      C1143   1.382       .  A
C1142      C1841   1.476       .  S
C1143      H1145   1.081       .  S
N1146      N1147   1.323       .  A
N1146      C1150   1.345       .  A
N1147      C1148   1.349       .  A
C1148      C1149   1.383       .  A
C1148      H1151   1.082       .  S
C1149      C1150   1.378       .  A
C1149      C1864   1.442       .  S
C1150      H1152   1.082       .  S
N1153      N1154   1.323       .  A
N1153      C1157   1.346       .  A
N1153     Cu1161   2.075       .  S
N1154      C1155   1.347       .  A
N1154     Cu1160   2.078       .  S
C1155      C1156   1.382       .  A
C1155      H1158   1.082       .  S
C1156      C1157   1.380       .  A
C1156      C1837   1.441       .  S
C1157      H1159   1.082       .  S
Cu1160     N1163   2.077       .  S
Cu1161     N1171   2.075       .  S
Cu1162     N1164   2.088       .  S
Cu1162     N1170   2.088       .  S
N1163      N1164   1.325       .  A
N1163      C1167   1.346       .  A
N1164      C1165   1.348       .  A
C1165      C1166   1.381       .  A
C1165      H1168   1.082       .  S
C1166      C1167   1.379       .  A
C1166      C2004   1.441       .  S
C1167      H1169   1.082       .  S
N1170      N1171   1.323       .  A
N1170      C1174   1.349       .  A
N1171      C1172   1.346       .  A
C1172      C1173   1.380       .  A
C1172      H1175   1.082       .  S
C1173      C1174   1.384       .  A
C1173      C1836   1.444       .  S
C1174      H1176   1.082       .  S
N1177      N1178   1.322       .  A
N1177      C1181   1.345       .  A
N1177     Cu1185   2.068       .  S
N1178      C1179   1.347       .  A
N1178     Cu1184   2.079       .  S
C1179      C1180   1.382       .  A
C1179      H1182   1.082       .  S
C1180      C1181   1.379       .  A
C1180      C1828   1.440       .  S
C1181      H1183   1.082       .  S
Cu1184     N1187   2.079       .  S
Cu1185     N1195   2.068       .  S
Cu1186     N1188   2.087       .  S
Cu1186     N1194   2.086       .  S
N1187      N1188   1.325       .  A
N1187      C1191   1.346       .  A
N1188      C1189   1.348       .  A
C1189      C1190   1.381       .  A
C1189      H1192   1.082       .  S
C1190      C1191   1.379       .  A
C1190      C1987   1.440       .  S
C1191      H1193   1.082       .  S
N1194      N1195   1.323       .  A
N1194      C1198   1.349       .  A
N1195      C1196   1.344       .  A
C1196      C1197   1.377       .  A
C1196      H1199   1.082       .  S
C1197      C1198   1.384       .  A
C1197      C1832   1.440       .  S
C1198      H1200   1.082       .  S
N1201      N1202   1.324       .  A
N1201      C1205   1.345       .  A
N1201     Cu1209   2.074       .  S
N1202      C1203   1.348       .  A
N1202     Cu1208   2.086       .  S
C1203      C1204   1.382       .  A
C1203      H1206   1.082       .  S
C1204      C1205   1.379       .  A
C1204      C1824   1.441       .  S
C1205      H1207   1.082       .  S
Cu1208     N1211   2.087       .  S
Cu1209     N1219   2.074       .  S
Cu1210     N1212   2.084       .  S
Cu1210     N1218   2.084       .  S
N1211      N1212   1.325       .  A
N1211      C1215   1.348       .  A
N1212      C1213   1.347       .  A
C1213      C1214   1.380       .  A
C1213      H1216   1.082       .  S
C1214      C1215   1.382       .  A
C1214      C2028   1.444       .  S
C1215      H1217   1.082       .  S
N1218      N1219   1.323       .  A
N1218      C1222   1.348       .  A
N1219      C1220   1.346       .  A
C1220      C1221   1.380       .  A
C1220      H1223   1.082       .  S
C1221      C1222   1.383       .  A
C1221      C1820   1.443       .  S
C1222      H1224   1.082       .  S
N1225      N1226   1.323       .  A
N1225      C1229   1.345       .  A
N1225     Cu1233   2.071       .  S
N1226      C1227   1.349       .  A
N1226     Cu1232   2.090       .  S
C1227      C1228   1.384       .  A
C1227      H1230   1.082       .  S
C1228      C1229   1.379       .  A
C1228      C1813   1.443       .  S
C1229      H1231   1.082       .  S
Cu1232     N1235   2.090       .  S
Cu1233     N1243   2.070       .  S
Cu1234     N1236   2.085       .  S
Cu1234     N1242   2.085       .  S
N1235      N1236   1.325       .  A
N1235      C1239   1.348       .  A
N1236      C1237   1.347       .  A
C1237      C1238   1.381       .  A
C1237      H1240   1.082       .  S
C1238      C1239   1.382       .  A
C1238      C2060   1.444       .  S
C1239      H1241   1.082       .  S
N1242      N1243   1.323       .  A
N1242      C1246   1.348       .  A
N1243      C1244   1.345       .  A
C1244      C1245   1.379       .  A
C1244      H1247   1.082       .  S
C1245      C1246   1.383       .  A
C1245      C1809   1.441       .  S
C1246      H1248   1.082       .  S
N1249      N1250   1.324       .  A
N1249      C1253   1.348       .  A
N1249     Cu1257   2.088       .  S
N1250      C1251   1.344       .  A
N1250     Cu1256   2.068       .  S
C1251      C1252   1.378       .  A
C1251      H1254   1.082       .  S
C1252      C1253   1.383       .  A
C1252      C1821   1.440       .  S
C1253      H1255   1.082       .  S
Cu1256     N1259   2.067       .  S
Cu1257     N1267   2.088       .  S
Cu1258     N1260   2.072       .  S
Cu1258     N1266   2.073       .  S
N1259      N1260   1.321       .  A
N1259      C1263   1.344       .  A
N1260      C1261   1.345       .  A
C1261      C1262   1.383       .  A
C1261      H1264   1.081       .  S
C1262      C1263   1.385       .  A
C1262      C1842   1.475       .  S
C1263      H1265   1.081       .  S
N1266      N1267   1.324       .  A
N1266      C1270   1.344       .  A
N1267      C1268   1.349       .  A
C1268      C1269   1.383       .  A
C1268      H1271   1.082       .  S
C1269      C1270   1.378       .  A
C1269      C1812   1.441       .  S
C1270      H1272   1.082       .  S
N1273      N1274   1.324       .  A
N1273      C1277   1.349       .  A
N1273     Cu1281   2.095       .  S
N1274      C1275   1.344       .  A
N1274     Cu1280   2.065       .  S
C1275      C1276   1.376       .  A
C1275      H1278   1.082       .  S
C1276      C1277   1.384       .  A
C1276      C1829   1.440       .  S
C1277      H1279   1.082       .  S
Cu1280     N1283   2.065       .  S
Cu1281     N1291   2.095       .  S
Cu1282     N1284   2.071       .  S
Cu1282     N1290   2.072       .  S
N1283      N1284   1.321       .  A
N1283      C1287   1.344       .  A
N1284      C1285   1.345       .  A
C1285      C1286   1.382       .  A
C1285      H1288   1.081       .  S
C1286      C1287   1.385       .  A
C1286      C1805   1.475   1_545  S
C1287      H1289   1.081       .  S
N1290      N1291   1.324       .  A
N1290      C1294   1.344       .  A
N1291      C1292   1.350       .  A
C1292      C1293   1.385       .  A
C1292      H1295   1.082       .  S
C1293      C1294   1.378       .  A
C1293      C1817   1.443       .  S
C1294      H1296   1.082       .  S
N1297      N1298   1.324       .  A
N1297      C1301   1.349       .  A
N1297     Cu1305   2.095       .  S
N1298      C1299   1.344       .  A
N1298     Cu1304   2.065       .  S
C1299      C1300   1.376       .  A
C1299      H1302   1.082       .  S
C1300      C1301   1.384       .  A
C1300      C1825   1.440       .  S
C1301      H1303   1.082       .  S
Cu1304     N1307   2.064       .  S
Cu1305     N1315   2.096       .  S
Cu1306     N1308   2.068       .  S
Cu1306     N1314   2.069       .  S
N1307      N1308   1.320       .  A
N1307      C1311   1.344       .  A
N1308      C1309   1.344       .  A
C1309      C1310   1.382       .  A
C1309      H1312   1.081       .  S
C1310      C1311   1.385       .  A
C1310      C1846   1.473   1_455  S
C1311      H1313   1.081       .  S
N1314      N1315   1.324       .  A
N1314      C1318   1.344       .  A
N1315      C1316   1.350       .  A
C1316      C1317   1.385       .  A
C1316      H1319   1.081       .  S
C1317      C1318   1.377       .  A
C1317      C1833   1.443       .  S
C1318      H1320   1.082       .  S
N1321      N1322   1.324       .  A
N1321      C1325   1.350       .  A
N1321     Cu1329   2.091       .  S
N1322      C1323   1.345       .  A
N1322     Cu1328   2.074       .  S
C1323      C1324   1.378       .  A
C1323      H1326   1.082       .  S
C1324      C1325   1.384       .  A
C1324      C1816   1.443       .  S
C1325      H1327   1.082       .  S
Cu1328     N1331   2.074       .  S
Cu1329     N1339   2.091       .  S
Cu1330     N1332   2.076       .  S
Cu1330     N1338   2.076       .  S
N1331      N1332   1.321       .  A
N1331      C1335   1.346       .  A
N1332      C1333   1.346       .  A
C1333      C1334   1.384       .  A
C1333      H1336   1.081       .  S
C1334      C1335   1.387       .  A
C1334      C1801   1.480       .  S
C1335      H1337   1.081       .  S
N1338      N1339   1.325       .  A
N1338      C1342   1.345       .  A
N1339      C1340   1.349       .  A
C1340      C1341   1.383       .  A
C1340      H1343   1.082       .  S
C1341      C1342   1.378       .  A
C1341      C1840   1.441       .  S
C1342      H1344   1.082       .  S
N1345      N1346   1.323       .  A
N1345      C1349   1.345       .  A
N1345     Cu1353   2.072       .  S
N1346      C1347   1.348       .  A
N1346     Cu1352   2.085       .  S
C1347      C1348   1.383       .  A
C1347      H1350   1.082       .  S
C1348      C1349   1.379       .  A
C1348      C1800   1.442       .  S
C1349      H1351   1.082       .  S
Cu1352     N1355   2.086       .  S
Cu1353     N1363   2.072       .  S
Cu1354     N1356   2.090       .  S
Cu1354     N1362   2.090       .  S
N1355      N1356   1.325       .  A
N1355      C1359   1.347       .  A
N1356      C1357   1.348       .  A
C1357      C1358   1.383       .  A
C1357      H1360   1.082       .  S
C1358      C1359   1.381       .  A
C1358      C2018   1.445       .  S
C1359      H1361   1.082       .  S
N1362      N1363   1.323       .  A
N1362      C1366   1.349       .  A
N1363      C1364   1.345       .  A
C1364      C1365   1.379       .  A
C1364      H1367   1.082       .  S
C1365      C1366   1.384       .  A
C1365      C1796   1.443       .  S
C1366      H1368   1.082       .  S
N1369      N1370   1.323       .  A
N1369      C1373   1.347       .  A
N1369     Cu1377   2.080       .  S
N1370      C1371   1.348       .  A
N1370     Cu1376   2.085       .  S
C1371      C1372   1.383       .  A
C1371      H1374   1.082       .  S
C1372      C1373   1.381       .  A
C1372      C1785   1.444       .  S
C1373      H1375   1.082       .  S
Cu1376     N1379   2.085       .  S
Cu1377     N1387   2.080       .  S
Cu1378     N1380   2.088       .  S
Cu1378     N1386   2.088       .  S
N1379      N1380   1.325       .  A
N1379      C1383   1.347       .  A
N1380      C1381   1.348       .  A
C1381      C1382   1.382       .  A
C1381      H1384   1.082       .  S
C1382      C1383   1.381       .  A
C1382      C2056   1.444       .  S
C1383      H1385   1.082       .  S
N1386      N1387   1.324       .  A
N1386      C1390   1.349       .  A
N1387      C1388   1.346       .  A
C1388      C1389   1.380       .  A
C1388      H1391   1.082       .  S
C1389      C1390   1.383       .  A
C1389      C1789   1.444       .  S
C1390      H1392   1.082       .  S
N1393      N1394   1.322       .  A
N1393      C1397   1.345       .  A
N1393     Cu1401   2.071       .  S
N1394      C1395   1.349       .  A
N1394     Cu1400   2.087       .  S
C1395      C1396   1.384       .  A
C1395      H1398   1.082       .  S
C1396      C1397   1.379       .  A
C1396      C1781   1.443       .  S
C1397      H1399   1.082       .  S
Cu1400     N1403   2.088       .  S
Cu1401     N1411   2.071       .  S
Cu1402     N1404   2.089       .  S
Cu1402     N1410   2.088       .  S
N1403      N1404   1.326       .  A
N1403      C1407   1.347       .  A
N1404      C1405   1.348       .  A
C1405      C1406   1.381       .  A
C1405      H1408   1.082       .  S
C1406      C1407   1.381       .  A
C1406      C2008   1.443       .  S
C1407      H1409   1.082       .  S
N1410      N1411   1.323       .  A
N1410      C1414   1.349       .  A
N1411      C1412   1.345       .  A
C1412      C1413   1.378       .  A
C1412      H1415   1.082       .  S
C1413      C1414   1.385       .  A
C1413      C1777   1.443       .  S
C1414      H1416   1.082       .  S
N1417      N1418   1.324       .  A
N1417      C1421   1.350       .  A
N1417     Cu1425   2.091       .  S
N1418      C1419   1.344       .  A
N1418     Cu1424   2.074       .  S
C1419      C1420   1.378       .  A
C1419      H1422   1.082       .  S
C1420      C1421   1.384       .  A
C1420      C1780   1.443       .  S
C1421      H1423   1.082       .  S
Cu1424     N1427   2.074       .  S
Cu1425     N1435   2.092       .  S
Cu1426     N1428   2.081       .  S
Cu1426     N1434   2.081       .  S
N1427      N1428   1.321       .  A
N1427      C1431   1.346       .  A
N1428      C1429   1.347       .  A
C1429      C1430   1.384       .  A
C1429      H1432   1.081       .  S
C1430      C1431   1.386       .  A
C1430      C1802   1.480       .  S
C1431      H1433   1.081       .  S
N1434      N1435   1.325       .  A
N1434      C1438   1.346       .  A
N1435      C1436   1.349       .  A
C1436      C1437   1.383       .  A
C1436      H1439   1.082       .  S
C1437      C1438   1.380       .  A
C1437      C1788   1.444       .  S
C1438      H1440   1.082       .  S
N1441      N1442   1.325       .  A
N1441      C1445   1.350       .  A
N1441     Cu1449   2.098       .  S
N1442      C1443   1.344       .  A
N1442     Cu1448   2.067       .  S
C1443      C1444   1.376       .  A
C1443      H1446   1.082       .  S
C1444      C1445   1.384       .  A
C1444      C1797   1.441       .  S
C1445      H1447   1.082       .  S
Cu1448     N1451   2.066       .  S
Cu1449     N1459   2.098       .  S
Cu1450     N1452   2.065       .  S
Cu1450     N1458   2.066       .  S
N1451      N1452   1.320       .  A
N1451      C1455   1.344       .  A
N1452      C1453   1.344       .  A
C1453      C1454   1.381       .  A
C1453      H1456   1.081       .  S
C1454      C1455   1.386       .  A
C1454      C1773   1.474       .  S
C1455      H1457   1.081       .  S
N1458      N1459   1.324       .  A
N1458      C1462   1.344       .  A
N1459      C1460   1.351       .  A
C1460      C1461   1.386       .  A
C1460      H1463   1.081       .  S
C1461      C1462   1.377       .  A
C1461      C1784   1.443       .  S
C1462      H1464   1.082       .  S
N1465      N1466   1.323       .  A
N1465      C1469   1.345       .  A
N1465     Cu1473   2.073       .  S
N1466      C1467   1.348       .  A
N1466     Cu1472   2.084       .  S
C1467      C1468   1.383       .  A
C1467      H1470   1.082       .  S
C1468      C1469   1.379       .  A
C1468      C1769   1.442       .  S
C1469      H1471   1.082       .  S
Cu1472     N1475   2.084       .  S
Cu1473     N1483   2.073       .  S
Cu1474     N1476   2.085       .  S
Cu1474     N1482   2.085       .  S
N1475      N1476   1.326       .  A
N1475      C1479   1.347       .  A
N1476      C1477   1.347       .  A
C1477      C1478   1.380       .  A
C1477      H1480   1.082       .  S
C1478      C1479   1.380       .  A
C1478      C1984   1.440       .  S
C1479      H1481   1.082       .  S
N1482      N1483   1.322       .  A
N1482      C1486   1.349       .  A
N1483      C1484   1.345       .  A
C1484      C1485   1.379       .  A
C1484      H1487   1.082       .  S
C1485      C1486   1.384       .  A
C1485      C1765   1.444       .  S
C1486      H1488   1.082       .  S
N1489      N1490   1.324       .  A
N1489      C1493   1.351       .  A
N1489     Cu1497   2.098       .  S
N1490      C1491   1.344       .  A
N1490     Cu1496   2.068       .  S
C1491      C1492   1.377       .  A
C1491      H1494   1.082       .  S
C1492      C1493   1.386       .  A
C1492      C1768   1.444       .  S
C1493      H1495   1.082       .  S
Cu1496     N1499   2.067       .  S
Cu1497     N1507   2.098       .  S
Cu1498     N1500   2.069       .  S
Cu1498     N1506   2.070       .  S
N1499      N1500   1.321       .  A
N1499      C1503   1.344       .  A
N1500      C1501   1.345       .  A
C1501      C1502   1.386       .  A
C1501      H1504   1.081       .  S
C1502      C1503   1.382       .  A
C1502      C1806   1.475       .  S
C1503      H1505   1.081       .  S
N1506      N1507   1.325       .  A
N1506      C1510   1.345       .  A
N1507      C1508   1.350       .  A
C1508      C1509   1.384       .  A
C1508      H1511   1.082       .  S
C1509      C1510   1.377       .  A
C1509      C1793   1.443       .  S
C1510      H1512   1.082       .  S
N1513      N1514   1.324       .  A
N1513      C1517   1.350       .  A
N1513     Cu1521   2.092       .  S
N1514      C1515   1.345       .  A
N1514     Cu1520   2.074       .  S
C1515      C1516   1.379       .  A
C1515      H1518   1.082       .  S
C1516      C1517   1.384       .  A
C1516      C1792   1.444       .  S
C1517      H1519   1.081       .  S
Cu1520     N1523   2.073       .  S
Cu1521     N1531   2.092       .  S
Cu1522     N1524   2.073       .  S
Cu1522     N1530   2.073       .  S
N1523      N1524   1.321       .  A
N1523      C1527   1.345       .  A
N1524      C1525   1.346       .  A
C1525      C1526   1.386       .  A
C1525      H1528   1.081       .  S
C1526      C1527   1.382       .  A
C1526      C1761   1.476       .  S
C1527      H1529   1.081       .  S
N1530      N1531   1.324       .  A
N1530      C1534   1.345       .  A
N1531      C1532   1.349       .  A
C1532      C1533   1.383       .  A
C1532      H1535   1.082       .  S
C1533      C1534   1.378       .  A
C1533      C1772   1.442       .  S
C1534      H1536   1.082       .  S
N1537      N1538   1.323       .  A
N1537      C1541   1.345       .  A
N1537     Cu1545   2.072       .  S
N1538      C1539   1.347       .  A
N1538     Cu1544   2.081       .  S
C1539      C1540   1.382       .  A
C1539      H1542   1.082       .  S
C1540      C1541   1.379       .  A
C1540      C1753   1.440       .  S
C1541      H1543   1.082       .  S
Cu1544     N1547   2.081       .  S
Cu1545     N1555   2.073       .  S
Cu1546     N1548   2.092       .  S
Cu1546     N1554   2.092       .  S
N1547      N1548   1.324       .  A
N1547      C1551   1.347       .  A
N1548      C1549   1.349       .  A
C1549      C1550   1.384       .  A
C1549      H1552   1.082       .  S
C1550      C1551   1.380       .  A
C1550      C2020   1.445       .  S
C1551      H1553   1.082       .  S
N1554      N1555   1.324       .  A
N1554      C1558   1.348       .  A
N1555      C1556   1.346       .  A
C1556      C1557   1.379       .  A
C1556      H1559   1.082       .  S
C1557      C1558   1.383       .  A
C1557      C1757   1.442       .  S
C1558      H1560   1.082       .  S
N1561      N1562   1.322       .  A
N1561      C1565   1.345       .  A
N1561     Cu1569   2.073       .  S
N1562      C1563   1.346       .  A
N1562     Cu1568   2.073       .  S
C1563      C1564   1.380       .  A
C1563      H1566   1.082       .  S
C1564      C1565   1.380       .  A
C1564      C1752   1.438       .  S
C1565      H1567   1.082       .  S
Cu1568     N1571   2.073       .  S
Cu1569     N1579   2.073       .  S
Cu1570     N1572   2.088       .  S
Cu1570     N1578   2.088       .  S
N1571      N1572   1.324       .  A
N1571      C1575   1.345       .  A
N1572      C1573   1.348       .  A
C1573      C1574   1.382       .  A
C1573      H1576   1.082       .  S
C1574      C1575   1.378       .  A
C1574      C2011   1.440       .  S
C1575      H1577   1.082       .  S
N1578      N1579   1.323       .  A
N1578      C1582   1.349       .  A
N1579      C1580   1.345       .  A
C1580      C1581   1.379       .  A
C1580      H1583   1.082       .  S
C1581      C1582   1.384       .  A
C1581      C1745   1.442       .  S
C1582      H1584   1.082       .  S
N1585      N1586   1.323       .  A
N1585      C1589   1.349       .  A
N1585     Cu1593   2.092       .  S
N1586      C1587   1.344       .  A
N1586     Cu1592   2.068       .  S
C1587      C1588   1.378       .  A
C1587      H1590   1.082       .  S
C1588      C1589   1.384       .  A
C1588      C1748   1.442       .  S
C1589      H1591   1.082       .  S
Cu1592     N1595   2.067       .  S
Cu1593     N1603   2.092       .  S
Cu1594     N1596   2.067       .  S
Cu1594     N1602   2.068       .  S
N1595      N1596   1.321       .  A
N1595      C1599   1.343       .  A
N1596      C1597   1.345       .  A
C1597      C1598   1.382       .  A
C1597      H1600   1.081       .  S
C1598      C1599   1.385       .  A
C1598      C1774   1.475       .  S
C1599      H1601   1.081       .  S
N1602      N1603   1.324       .  A
N1602      C1606   1.344       .  A
N1603      C1604   1.349       .  A
C1604      C1605   1.383       .  A
C1604      H1607   1.081       .  S
C1605      C1606   1.377       .  A
C1605      C1756   1.440       .  S
C1606      H1608   1.082       .  S
N1609      N1610   1.322       .  A
N1609      C1613   1.344       .  A
N1609     Cu1617   2.068       .  S
N1610      C1611   1.347       .  A
N1610     Cu1616   2.080       .  S
C1611      C1612   1.382       .  A
C1611      H1614   1.082       .  S
C1612      C1613   1.378       .  A
C1612      C1741   1.439       .  S
C1613      H1615   1.082       .  S
Cu1616     N1619   2.080       .  S
Cu1617     N1627   2.068       .  S
Cu1618     N1620   2.095       .  S
Cu1618     N1626   2.095       .  S
N1619      N1620   1.325       .  A
N1619      C1623   1.347       .  A
N1620      C1621   1.349       .  A
C1621      C1622   1.384       .  A
C1621      H1624   1.082       .  S
C1622      C1623   1.380       .  A
C1622      C2042   1.445       .  S
C1623      H1625   1.082       .  S
N1626      N1627   1.324       .  A
N1626      C1630   1.349       .  A
N1627      C1628   1.345       .  A
C1628      C1629   1.378       .  A
C1628      H1631   1.082       .  S
C1629      C1630   1.385       .  A
C1629      C1737   1.443       .  S
C1630      H1632   1.081       .  S
N1633      N1634   1.323       .  A
N1633      C1637   1.344       .  A
N1633     Cu1641   2.066       .  S
N1634      C1635   1.349       .  A
N1634     Cu1640   2.090       .  S
C1635      C1636   1.384       .  A
C1635      H1638   1.082       .  S
C1636      C1637   1.377       .  A
C1636      C1729   1.440       .  S
C1637      H1639   1.082       .  S
Cu1640     N1643   2.090       .  S
Cu1641     N1651   2.066       .  S
Cu1642     N1644   2.076       .  S
Cu1642     N1650   2.075       .  S
N1643      N1644   1.325       .  A
N1643      C1647   1.348       .  A
N1644      C1645   1.346       .  A
C1645      C1646   1.378       .  A
C1645      H1648   1.082       .  S
C1646      C1647   1.382       .  A
C1646      C1979   1.441       .  S
C1647      H1649   1.082       .  S
N1650      N1651   1.322       .  A
N1650      C1654   1.346       .  A
N1651      C1652   1.345       .  A
C1652      C1653   1.379       .  A
C1652      H1655   1.082       .  S
C1653      C1654   1.381       .  A
C1653      C1733   1.438       .  S
C1654      H1656   1.082       .  S
N1657      N1658   1.324       .  A
N1657      C1661   1.349       .  A
N1657     Cu1665   2.090       .  S
N1658      C1659   1.344       .  A
N1658     Cu1664   2.071       .  S
C1659      C1660   1.378       .  A
C1659      H1662   1.082       .  S
C1660      C1661   1.384       .  A
C1660      C1740   1.442       .  S
C1661      H1663   1.082       .  S
Cu1664     N1667   2.070       .  S
Cu1665     N1675   2.089       .  S
Cu1666     N1668   2.069       .  S
Cu1666     N1674   2.070       .  S
N1667      N1668   1.321       .  A
N1667      C1671   1.344       .  A
N1668      C1669   1.345       .  A
C1669      C1670   1.383       .  A
C1669      H1672   1.081       .  S
C1670      C1671   1.386       .  A
C1670      C1762   1.477       .  S
C1671      H1673   1.081       .  S
N1674      N1675   1.325       .  A
N1674      C1678   1.344       .  A
N1675      C1676   1.349       .  A
C1676      C1677   1.382       .  A
C1676      H1679   1.081       .  S
C1677      C1678   1.376       .  A
C1677      C1736   1.438       .  S
C1678      H1680   1.082       .  S
N1681      N1682   1.323       .  A
N1681      C1685   1.349       .  A
N1681     Cu1689   2.088       .  S
N1682      C1683   1.343       .  A
N1682     Cu1688   2.064       .  S
C1683      C1684   1.377       .  A
C1683      H1686   1.082       .  S
C1684      C1685   1.384       .  A
C1684      C1732   1.440       .  S
C1685      H1687   1.082       .  S
Cu1688     N1691   2.064       .  S
Cu1689     N1699   2.088       .  S
Cu1690     N1692   2.069       .  S
Cu1690     N1698   2.070       .  S
N1691      N1692   1.321       .  A
N1691      C1695   1.343       .  A
N1692      C1693   1.345       .  A
C1693      C1694   1.383       .  A
C1693      H1696   1.081       .  S
C1694      C1695   1.385       .  A
C1694      C1954   1.476   1_455  S
C1695      H1697   1.081       .  S
N1698      N1699   1.325       .  A
N1698      C1702   1.344       .  A
N1699      C1700   1.348       .  A
C1700      C1701   1.382       .  A
C1700      H1703   1.081       .  S
C1701      C1702   1.377       .  A
C1701      C1749   1.438       .  S
C1702      H1704   1.082       .  S
N1705      N1706   1.323       .  A
N1705      C1709   1.349       .  A
N1705     Cu1713   2.088       .  S
N1706      C1707   1.345       .  A
N1706     Cu1712   2.071       .  S
C1707      C1708   1.379       .  A
C1707      H1710   1.082       .  S
C1708      C1709   1.383       .  A
C1708      C1760   1.442       .  S
C1709      H1711   1.082       .  S
Cu1712     N1715   2.071       .  S
Cu1713     N1723   2.088       .  S
Cu1714     N1716   2.070       .  S
Cu1714     N1722   2.070       .  S
N1715      N1716   1.321       .  A
N1715      C1719   1.344       .  A
N1716      C1717   1.345       .  A
C1717      C1718   1.383       .  A
C1717      H1720   1.081       .  S
C1718      C1719   1.385       .  A
C1718      C1930   1.476       .  S
C1719      H1721   1.081       .  S
N1722      N1723   1.324       .  A
N1722      C1726   1.344       .  A
N1723      C1724   1.349       .  A
C1724      C1725   1.383       .  A
C1724      H1727   1.082       .  S
C1725      C1726   1.377       .  A
C1725      C1744   1.439       .  S
C1726      H1728   1.082       .  S
C1729      C1730   1.208       .  T
C1730      C1731   1.415       .  S
C1731      C1732   1.208       .  T
C1733      C1734   1.206       .  T
C1734      C1735   1.413       .  S
C1735      C1736   1.206       .  T
C1737      C1738   1.209       .  T
C1738      C1739   1.417       .  S
C1739      C1740   1.209       .  T
C1741      C1742   1.207       .  T
C1742      C1743   1.414       .  S
C1743      C1744   1.207       .  T
C1745      C1746   1.209       .  T
C1746      C1747   1.417       .  S
C1747      C1748   1.209       .  T
C1749      C1750   1.206       .  T
C1750      C1751   1.413       .  S
C1751      C1752   1.206       .  T
C1753      C1754   1.208       .  T
C1754      C1755   1.415       .  S
C1755      C1756   1.208       .  T
C1757      C1758   1.209       .  T
C1758      C1759   1.417       .  S
C1759      C1760   1.209       .  T
C1761      C1762   1.344       .  D
C1761      H1763   1.085       .  S
C1762      H1764   1.085       .  S
C1765      C1766   1.210       .  T
C1766      C1767   1.419       .  S
C1767      C1768   1.210       .  T
C1769      C1770   1.209       .  T
C1770      C1771   1.417       .  S
C1771      C1772   1.209       .  T
C1773      C1774   1.343   1_556  D
C1773      H1775   1.085   1_556  S
C1774      H1776   1.085       .  S
C1777      C1778   1.209       .  T
C1778      C1779   1.418       .  S
C1779      C1780   1.209       .  T
C1781      C1782   1.210       .  T
C1782      C1783   1.418       .  S
C1783      C1784   1.209       .  T
C1785      C1786   1.210       .  T
C1786      C1787   1.419       .  S
C1787      C1788   1.210       .  T
C1789      C1790   1.210       .  T
C1790      C1791   1.419       .  S
C1791      C1792   1.210       .  T
C1793      C1794   1.209       .  T
C1794      C1795   1.418       .  S
C1795      C1796   1.209       .  T
C1797      C1798   1.208       .  T
C1798      C1799   1.416       .  S
C1799      C1800   1.208       .  T
C1801      C1802   1.345       .  D
C1801      H1803   1.085       .  S
C1802      H1804   1.085       .  S
C1805      C1806   1.343       .  D
C1805      H1807   1.085       .  S
C1806      H1808   1.085       .  S
C1809      C1810   1.208       .  T
C1810      C1811   1.416       .  S
C1811      C1812   1.208       .  T
C1813      C1814   1.209       .  T
C1814      C1815   1.418       .  S
C1815      C1816   1.209       .  T
C1817      C1818   1.209       .  T
C1818      C1819   1.418       .  S
C1819      C1820   1.209       .  T
C1821      C1822   1.208       .  T
C1822      C1823   1.416       .  S
C1823      C1824   1.208       .  T
C1825      C1826   1.208       .  T
C1826      C1827   1.415       .  S
C1827      C1828   1.208       .  T
C1829      C1830   1.208       .  T
C1830      C1831   1.415       .  S
C1831      C1832   1.208       .  T
C1833      C1834   1.209       .  T
C1834      C1835   1.418       .  S
C1835      C1836   1.210       .  T
C1837      C1838   1.208       .  T
C1838      C1839   1.416       .  S
C1839      C1840   1.208       .  T
C1841      C1842   1.344       .  D
C1841      H1843   1.085       .  S
C1842      H1844   1.085       .  S
C1845      C1846   1.343       .  D
C1845      H1847   1.085       .  S
C1846      H1848   1.084       .  S
C1849      C1850   1.209       .  T
C1850      C1851   1.418       .  S
C1851      C1852   1.209       .  T
C1853      C1854   1.207       .  T
C1854      C1855   1.414       .  S
C1855      C1856   1.207       .  T
C1857      C1858   1.207       .  T
C1858      C1859   1.414       .  S
C1859      C1860   1.207       .  T
C1861      C1862   1.209       .  T
C1862      C1863   1.417       .  S
C1863      C1864   1.209       .  T
C1865      C1866   1.207       .  T
C1866      C1867   1.414       .  S
C1867      C1868   1.207       .  T
C1869      C1870   1.208       .  T
C1870      C1871   1.416       .  S
C1871      C1872   1.208       .  T
C1873      C1874   1.208       .  T
C1874      C1875   1.416       .  S
C1875      C1876   1.208       .  T
C1877      C1878   1.207       .  T
C1878      C1879   1.414       .  S
C1879      C1880   1.207       .  T
C1881      C1882   1.343       .  D
C1881      H1883   1.085       .  S
C1882      H1884   1.085       .  S
C1885      C1886   1.344   1_556  D
C1885      H1887   1.085   1_556  S
C1886      H1888   1.085       .  S
C1889      C1890   1.209       .  T
C1890      C1891   1.418       .  S
C1891      C1892   1.209       .  T
C1893      C1894   1.210       .  T
C1894      C1895   1.419       .  S
C1895      C1896   1.210       .  T
C1897      C1898   1.209       .  T
C1898      C1899   1.417       .  S
C1899      C1900   1.209       .  T
C1901      C1902   1.209       .  T
C1902      C1903   1.417       .  S
C1903      C1904   1.209       .  T
C1905      C1906   1.209       .  T
C1906      C1907   1.417       .  S
C1907      C1908   1.209       .  T
C1909      C1910   1.210       .  T
C1910      C1911   1.419       .  S
C1911      C1912   1.210       .  T
C1913      C1914   1.209       .  T
C1914      C1915   1.417       .  S
C1915      C1916   1.209       .  T
C1917      C1918   1.210       .  T
C1918      C1919   1.419       .  S
C1919      C1920   1.210       .  T
C1921      C1922   1.343       .  D
C1921      H1923   1.085       .  S
C1922      H1924   1.085       .  S
C1925      C1926   1.344       .  D
C1925      H1927   1.085       .  S
C1926      H1928   1.085       .  S
C1929      C1930   1.344       .  D
C1929      H1931   1.085       .  S
C1930      H1932   1.085       .  S
C1933      C1934   1.208       .  T
C1934      C1935   1.415       .  S
C1935      C1936   1.208       .  T
C1937      C1938   1.209       .  T
C1938      C1939   1.417       .  S
C1939      C1940   1.209       .  T
C1941      C1942   1.207       .  T
C1942      C1943   1.414       .  S
C1943      C1944   1.207       .  T
C1945      C1946   1.209       .  T
C1946      C1947   1.417       .  S
C1947      C1948   1.209       .  T
C1949      C1950   1.208       .  T
C1950      C1951   1.416       .  S
C1951      C1952   1.208       .  T
C1953      C1954   1.343       .  D
C1953      H1955   1.085       .  S
C1954      H1956   1.085       .  S
C1957      C1958   1.210       .  T
C1958      C1959   1.419       .  S
C1959      C1960   1.210       .  T
C1961      C1962   1.208       .  T
C1962      C1963   1.416       .  S
C1963      C1964   1.208       .  T
C1965      C1966   1.208       .  T
C1966      C1967   1.415       .  S
C1967      C1968   1.208       .  T
C1969      C1970   1.208       .  T
C1971      C1972   1.209       .  T
C1973      C1974   1.207       .  T
C1975      C1976   1.208       .  T
C1977      C1978   1.207       .  T
C1979      C1980   1.208       .  T
C1981      C1982   1.207       .  T
C1983      C1984   1.208       .  T
C1985      C1986   1.208       .  T
C1987      C1988   1.208       .  T
C1989      C1990   1.208       .  T
C1991      C1992   1.208       .  T
C1993      C1994   1.208       .  T
C1995      C1996   1.208       .  T
C1997      C1998   1.208   1_554  T
C1999      C2000   1.208       .  T
C2001      C2002   1.208       .  T
C2003      C2004   1.208       .  T
C2005      C2006   1.207       .  T
C2007      C2008   1.209       .  T
C2009      C2010   1.208       .  T
C2011      C2012   1.207       .  T
C2013      C2014   1.207   1_556  T
C2015      C2016   1.208       .  T
C2017      C2018   1.211       .  T
C2019      C2020   1.211       .  T
C2021      C2022   1.210   1_554  T
C2023      C2024   1.210       .  T
C2025      C2026   1.207       .  T
C2027      C2028   1.210       .  T
C2029      C2030   1.210       .  T
C2031      C2032   1.210       .  T
C2033      C2034   1.209       .  T
C2035      C2036   1.209       .  T
C2037      C2038   1.208   1_545  T
C2039      C2040   1.208   1_556  T
C2041      C2042   1.210       .  T
C2043      C2044   1.209       .  T
C2045      C2046   1.209       .  T
C2047      C2048   1.210       .  T
C2049      C2050   1.210       .  T
C2051      C2052   1.210       .  T
C2053      C2054   1.209       .  T
C2055      C2056   1.210       .  T
C2057      C2058   1.208       .  T
C2059      C2060   1.210       .  T
C2061      C2062   1.207       .  T
C2063      C2064   1.209       .  T
