geometry optimzed in LAMMPS
_audit_creation_date              2020-11-30 
_audit_creation_method            'lammps2cif' 
_symmetry_space_group_name_H-M    'P1' 
_symmetry_Int_Tables_number       1 
_symmetry_cell_setting            triclinic 
loop_ 
_symmetry_equiv_pos_as_xyz 
  x,y,z 
_cell_length_a                    35.97317187645415 
_cell_length_b                    36.381437240151456 
_cell_length_c                    36.032229726871684 
_cell_angle_alpha                 89.6321610678805 
_cell_angle_beta                  89.53923787703175 
_cell_angle_gamma                 90.19711316471538 
loop_ 
_atom_site_label 
_atom_site_type_symbol 
_atom_site_fract_x 
_atom_site_fract_y 
_atom_site_fract_z 
_atom_site_charge 
C1          C  0.12136603  0.84304146  0.52975715     0.01890
C2          C  0.10554738  0.83435229  0.49407400     0.01890
C3          C  0.12478253  0.84807985  0.46213645     0.01890
C4          C  0.14823932  0.88049318  0.46558075     0.01890
C5          C  0.15366574  0.89792927  0.50138094     0.01890
C6          C  0.14474042  0.87561766  0.53377164     0.01890
C7          C  0.15486577  0.08251908  0.46717022     0.01890
C8          C  0.16912664  0.06431719  0.50058714     0.01890
C9          C  0.16646778  0.08692949  0.53347909     0.01890
C10         C  0.13302468  0.10978893  0.53663167     0.01890
C11         C  0.10978937  0.11728606  0.50528368     0.01890
C12         C  0.12795230  0.11245504  0.47024431     0.01890
C13         C  0.91894311  0.10225190  0.53434274     0.01890
C14         C  0.94100430  0.10720194  0.50153253     0.01890
C15         C  0.92115153  0.10301756  0.46693974     0.01890
C16         C  0.88577971  0.08207160  0.46640633     0.01890
C17         C  0.87662492  0.06076129  0.49941513     0.01890
C18         C  0.88797590  0.07713200  0.53326930     0.01890
C19         C  0.92209526  0.84600913  0.52496173     0.01890
C20         C  0.93911739  0.83879216  0.48951985     0.01890
C21         C  0.91761773  0.85003772  0.45773164     0.01890
C22         C  0.88954850  0.87846489  0.46243298     0.01890
C23         C  0.88272674  0.89444780  0.49897109     0.01890
C24         C  0.89367757  0.87194799  0.53101403     0.01890
C25         C  0.48597809  0.10655742  0.11168349     0.01890
C26         C  0.51974079  0.11179993  0.08923527     0.01890
C27         C  0.55369169  0.10467830  0.10979958     0.01890
C28         C  0.55352807  0.08032731  0.14238198     0.01890
C29         C  0.52069250  0.05765250  0.14581905     0.01890
C30         C  0.48679197  0.07904912  0.14241302     0.01890
C31         C  0.48706644  0.10862630  0.89492550     0.01890
C32         C  0.51801168  0.11734336  0.91883229     0.01890
C33         C  0.55360048  0.10776138  0.90224602     0.01890
C34         C  0.55691712  0.07780738  0.87645552     0.01890
C35         C  0.52487097  0.05668138  0.86877441     0.01890
C36         C  0.48981946  0.07489139  0.87319523     0.01890
C37         C  0.48625234  0.87010154  0.12812008     0.01890
C38         C  0.51974148  0.89147062  0.13360806     0.01890
C39         C  0.55260230  0.87288038  0.12235134     0.01890
C40         C  0.55121364  0.84445971  0.09478012     0.01890
C41         C  0.51658551  0.83180794  0.07970862     0.01890
C42         C  0.48508497  0.83738763  0.10424807     0.01890
C43         C  0.48718273  0.87511663  0.87138143     0.01890
C44         C  0.52199479  0.89287062  0.86625954     0.01890
C45         C  0.55457532  0.87078467  0.87056157     0.01890
C46         C  0.55288184  0.83564204  0.89074525     0.01890
C47         C  0.51931952  0.83017124  0.91364857     0.01890
C48         C  0.48547152  0.84469921  0.89696354     0.01890
C49         C  0.14334932  0.50837060  0.89192805     0.01890
C50         C  0.11745630  0.50995255  0.86138955     0.01890
C51         C  0.09951951  0.47688181  0.84843053     0.01890
C52         C  0.11924126  0.44255983  0.85742689     0.01890
C53         C  0.14378751  0.44115011  0.88973738     0.01890
C54         C  0.15157210  0.47436556  0.91003313     0.01890
C55         C  0.15214693  0.50449326  0.09763029     0.01890
C56         C  0.16064797  0.47279259  0.07651360     0.01890
C57         C  0.15488160  0.43780527  0.09452069     0.01890
C58         C  0.12625146  0.43509838  0.12387792     0.01890
C59         C  0.10476380  0.46806476  0.13392730     0.01890
C60         C  0.12257075  0.50274343  0.12497579     0.01890
C61         C  0.91770074  0.50861126  0.13623732     0.01890
C62         C  0.93786227  0.47426934  0.14423498     0.01890
C63         C  0.91770385  0.44108482  0.13249373     0.01890
C64         C  0.88683338  0.44293779  0.10700119     0.01890
C65         C  0.88124832  0.47638861  0.08710545     0.01890
C66         C  0.89234615  0.50959470  0.10487714     0.01890
C67         C  0.91294239  0.51353724  0.87131045     0.01890
C68         C  0.93623763  0.48284577  0.86187033     0.01890
C69         C  0.92207943  0.44697920  0.87355868     0.01890
C70         C  0.89213151  0.44322218  0.90071172     0.01890
C71         C  0.87978595  0.47526244  0.92003257     0.01890
C72         C  0.88462375  0.50988976  0.90042003     0.01890
O73         O  0.23573622  0.90520497  0.69412317    -0.75680
O74         O  0.18605023  0.94342536  0.68516879    -0.54590
C75         C  0.20780445  0.91712265  0.67535057     0.78050
O76         O  0.21264616  0.90731191  0.88446070    -0.60280
O77         O  0.26891285  0.93142822  0.89842793    -0.53310
C78         C  0.24182998  0.90905806  0.90480414     0.70060
O79         O  0.12174524  0.92743889  0.80243769    -0.74840
O80         O  0.12746211  0.93435952  0.74069256    -0.55410
C81         C  0.11386438  0.91769623  0.76961083     0.76060
O82         O  0.32334832  0.90042423  0.78394798    -0.59990
O83         O  0.32445757  0.93399640  0.83603993    -0.53110
C84         C  0.33883865  0.91031755  0.81462039     0.72650
Zr85       Zr  0.26482753  0.92120324  0.75352480     2.54710
O86         O  0.25872562  0.85457802  0.75661100    -0.80550
O87         O  0.31466336  0.92313424  0.70738132    -0.93970
Zr88       Zr  0.18296422  0.92777462  0.82812264     2.64680
O89         O  0.17893722  0.86216681  0.81657823    -0.98920
O90         O  0.13777281  0.92269279  0.87846815    -0.80990
O91         O  0.19923946  0.92604521  0.76420015    -0.84340
O92         O  0.24733670  0.92086302  0.81742176    -2.19050
O93         O  0.33133701  0.04005991  0.78887669    -0.67730
O94         O  0.33213934  0.00257212  0.83975932    -0.52300
C95         C  0.34681035  0.02670859  0.81842050     0.71040
O96         O  0.13885924  0.05292613  0.79423815    -0.60640
O97         O  0.12249222  0.02442512  0.74130471    -0.52620
C98         C  0.11697517  0.04869219  0.76680081     0.72840
O99         O  0.21124924  0.02736800  0.89190355    -0.72040
O100        O  0.27246998  0.02000674  0.89447112    -0.50710
C101        C  0.24292838  0.03703593  0.90427274     0.74220
O102        O  0.24723054  0.04843768  0.69328595    -0.67370
O103        O  0.18998065  0.02212707  0.68439485    -0.54560
C104        C  0.21765030  0.04254244  0.67400071     0.72600
Zr105      Zr  0.27277680  0.02997265  0.75400992     2.77540
O106        O  0.27415776  0.09683237  0.75664994    -0.98110
O107        O  0.32272078  0.02682257  0.70823524    -0.78940
Zr108      Zr  0.19280891  0.03553601  0.82802664     2.70070
O109        O  0.21350860  0.09912970  0.82815907    -0.80180
O110        O  0.14185694  0.05839458  0.86577024    -0.99270
Zr111      Zr  0.17706287  0.98257723  0.73815354     2.21500
Zr112      Zr  0.27353157  0.97385734  0.84524369     2.11130
O113        O  0.25728530  0.03180147  0.81812639    -2.47950
O114        O  0.20751352  0.03522748  0.76392863    -0.79980
O115        O  0.29161978  0.97367360  0.78123449    -0.72170
O116        O  0.16230000  0.98438049  0.80275686    -2.33130
O117        O  0.24330740  0.97770406  0.72777558    -2.29340
O118        O  0.20911562  0.97936189  0.85685387    -0.73930
H119        H  0.25647937  0.89861909  0.82886833     0.78070
H120        H  0.13609835  0.98794931  0.80728333     0.79150
H121        H  0.26998448  0.05193217  0.83000238     0.81380
H122        H  0.24880132  0.97757389  0.70151345     0.78990
H123        H  0.13311131  0.94841631  0.88595745     0.42020
H124        H  0.13249034  0.03652342  0.87945746     0.40990
H125        H  0.20410491  0.10949085  0.80456955     0.40670
H126        H  0.28422755  0.10253407  0.78145210     0.38600
H127        H  0.33358266  0.00211156  0.71188401     0.41730
H128        H  0.30530976  0.93917629  0.68724636     0.36520
H129        H  0.23383149  0.84932194  0.74635195     0.42640
H130        H  0.17811390  0.86008074  0.78922549     0.39050
H131        H  0.29423815  0.10407926  0.73910301     0.43970
H132        H  0.31493070  0.89818144  0.69657965     0.42690
H133        H  0.20366590  0.85247804  0.82334668     0.42830
H134        H  0.15444243  0.07326436  0.88472758     0.43190
O135        O  0.10369422  0.18897203  0.69895174    -0.75680
O136        O  0.06491390  0.14008858  0.69184298    -0.54590
C137        C  0.09267772  0.16027059  0.68164693     0.78050
O138        O  0.08515201  0.17903292  0.88783855    -0.60280
O139        O  0.06466043  0.23665408  0.89799080    -0.53310
C140        C  0.08514994  0.20894767  0.90654285     0.70060
O141        O  0.08846806  0.09555930  0.79760928    -0.74840
O142        O  0.06157022  0.08185211  0.74305162    -0.55410
C143        C  0.08611660  0.07607164  0.76835513     0.76060
O144        O  0.10534270  0.27719095  0.77880656    -0.59990
O145        O  0.06924013  0.28838010  0.83003837    -0.53110
C146        C  0.09478627  0.29730474  0.80590628     0.72650
Zr147      Zr  0.08067366  0.22071214  0.75368853     2.54710
O148        O  0.14788688  0.21486642  0.75782150    -0.80550
O149        O  0.07740760  0.26811154  0.70574970    -0.93970
Zr150      Zr  0.06733031  0.14635717  0.83302272     2.64680
O151        O  0.13344342  0.13653469  0.83918658    -0.98920
O152        O  0.05714951  0.09847668  0.87955284    -0.80990
O153        O  0.07401378  0.15769758  0.76882255    -0.84340
O154        O  0.07762479  0.20883565  0.81877360    -2.19050
O155        O  0.95337366  0.28825643  0.78468027    -0.67730
O156        O  0.99949055  0.29673073  0.82596354    -0.52300
C157        C  0.96951601  0.30687291  0.81067380     0.71040
O158        O  0.94339438  0.09750563  0.79684060    -0.60640
O159        O  0.97587858  0.08242927  0.74468182    -0.52620
C160        C  0.95105162  0.07570129  0.76992354     0.72840
O161        O  0.94341730  0.18358453  0.88288457    -0.72040
O162        O  0.97631895  0.23591631  0.89471402    -0.50710
C163        C  0.95088622  0.21157893  0.90300075     0.74220
O164        O  0.95351492  0.20335041  0.68860019    -0.67370
O165        O  0.97846382  0.14555942  0.68869038    -0.54560
C166        C  0.95967577  0.17164126  0.67349131     0.72600
Zr167      Zr  0.97108358  0.23177879  0.74894280     2.77540
O168        O  0.90354886  0.23422212  0.74543523    -0.98110
O169        O  0.98228333  0.28120319  0.70435604    -0.78940
Zr170      Zr  0.96024269  0.15557180  0.82484229     2.70070
O171        O  0.89641173  0.16986530  0.80826614    -0.80180
O172        O  0.94912765  0.10652212  0.86937420    -0.99270
Zr173      Zr  0.01890663  0.13538708  0.74077316     2.21500
Zr174      Zr  0.02395118  0.23863610  0.84295630     2.11130
O175        O  0.96716950  0.21935694  0.81394048    -2.47950
O176        O  0.96462686  0.16745491  0.76089254    -0.79980
O177        O  0.02729329  0.25071418  0.77755357    -0.72170
O178        O  0.01344347  0.12342666  0.80532458    -2.33130
O179        O  0.02473434  0.19982459  0.72601163    -2.29340
O180        O  0.01432369  0.17529325  0.85618786    -0.73930
H181        H  0.10008012  0.21780135  0.83018470     0.78070
H182        H  0.01159611  0.09742367  0.81061977     0.79150
H183        H  0.94609582  0.23188593  0.82470818     0.81380
H184        H  0.02661073  0.20332501  0.69947486     0.78990
H185        H  0.05647771  0.07528627  0.86534153     0.42020
H186        H  0.96118580  0.11464651  0.89253187     0.40990
H187        H  0.89274781  0.15841480  0.78370648     0.40670
H188        H  0.89518109  0.24031010  0.77090181     0.38600
H189        H  0.99835976  0.29883401  0.71763253     0.41730
H190        H  0.06653021  0.25584985  0.68391400     0.36520
H191        H  0.15199337  0.18867191  0.76412824     0.42640
H192        H  0.14445941  0.16063723  0.83237004     0.39050
H193        H  0.89842688  0.25667305  0.73069118     0.43970
H194        H  0.10361976  0.27293500  0.69864257     0.42690
H195        H  0.13685041  0.13424771  0.86628514     0.42830
H196        H  0.92221893  0.10811286  0.87434480     0.43190
O197        O  0.09553284  0.75464996  0.30062090    -0.75680
O198        O  0.05977709  0.80592348  0.30872073    -0.54590
C199        C  0.08599065  0.78406848  0.31870871     0.78050
O200        O  0.06492900  0.77600242  0.10286354    -0.60280
O201        O  0.06080401  0.71464129  0.10469572    -0.53310
C202        C  0.07660297  0.74449333  0.09265208     0.70060
O203        O  0.08805307  0.85451129  0.19637942    -0.74840
O204        O  0.06133607  0.86849849  0.25160497    -0.55410
C205        C  0.08523591  0.87487950  0.22519281     0.76060
O206        O  0.08900876  0.66523708  0.20701590    -0.59990
O207        O  0.04714963  0.65796626  0.16092683    -0.53110
C208        C  0.07518674  0.64712992  0.17912873     0.72650
Zr209      Zr  0.07354141  0.72301958  0.24275247     2.54710
O210        O  0.14090305  0.72557978  0.23623372    -0.80550
O211        O  0.07268645  0.67457998  0.28968530    -0.93970
Zr212      Zr  0.06757726  0.79987298  0.16533590     2.64680
O213        O  0.13409349  0.78914353  0.16291409    -0.98920
O214        O  0.07704922  0.85044986  0.12174132    -0.80990
O215        O  0.07175870  0.78753549  0.22962541    -0.84340
O216        O  0.06917021  0.73618091  0.17819375    -2.19050
O217        O  0.93974123  0.66543135  0.22836733    -0.67730
O218        O  0.96991145  0.66033340  0.17283295    -0.52300
C219        C  0.94632783  0.64881883  0.19802017     0.71040
O220        O  0.94405203  0.85242120  0.20478955    -0.60640
O221        O  0.97495723  0.86847083  0.25657630    -0.52620
C222        C  0.94965922  0.87407004  0.23189066     0.72840
O223        O  0.94244941  0.77305637  0.11231175    -0.72040
O224        O  0.96966723  0.71809311  0.09988142    -0.50710
C225        C  0.94751280  0.74495957  0.09151322     0.74220
O226        O  0.94628597  0.74820724  0.30795279    -0.67370
O227        O  0.97547384  0.80409880  0.31026970    -0.54560
C228        C  0.95294115  0.77911045  0.32298163     0.72600
Zr229      Zr  0.96441781  0.72278606  0.24974521     2.77540
O230        O  0.89688634  0.72726661  0.25278828    -0.98110
O231        O  0.97541877  0.67596344  0.29694571    -0.78940
Zr232      Zr  0.95893483  0.79820036  0.17192793     2.70070
O233        O  0.89254501  0.78889575  0.18138777    -0.80180
O234        O  0.94933540  0.84925664  0.12918316    -0.99270
Zr235      Zr  0.01785118  0.81475376  0.25770830     2.21500
Zr236      Zr  0.01176186  0.71172339  0.15448927     2.11130
O237        O  0.95816616  0.73488901  0.18501146    -2.47950
O238        O  0.96198743  0.78675763  0.23639840    -0.79980
O239        O  0.01716111  0.69810890  0.21946459    -0.72170
O240        O  0.01436884  0.82644214  0.19258755    -2.33130
O241        O  0.02015452  0.74975923  0.27158661    -2.29340
O242        O  0.01173553  0.77564037  0.14137615    -0.73930
H243        H  0.09031949  0.72521832  0.16597142     0.78070
H244        H  0.01404971  0.85251933  0.18735251     0.79150
H245        H  0.93573195  0.72397358  0.17539079     0.81380
H246        H  0.02137643  0.74560342  0.29804592     0.78990
H247        H  0.05237851  0.86229452  0.11998228     0.42020
H248        H  0.96773747  0.84543051  0.10900423     0.40990
H249        H  0.88780750  0.79658578  0.20730283     0.40670
H250        H  0.88818456  0.72028396  0.22780083     0.38600
H251        H  0.99276234  0.65844300  0.28507864     0.41730
H252        H  0.05975655  0.68552017  0.31129106     0.36520
H253        H  0.14676895  0.75215314  0.23455995     0.42640
H254        H  0.13741774  0.76641227  0.14838256     0.39050
H255        H  0.88896479  0.70665105  0.26912926     0.43970
H256        H  0.09890860  0.67240062  0.29752641     0.42690
H257        H  0.14314306  0.80906511  0.14637884     0.42830
H258        H  0.92501615  0.84409672  0.11772463     0.43190
O259        O  0.22778156  0.85562403  0.07184066    -0.75680
O260        O  0.27904834  0.87362929  0.04051281    -0.54590
C261        C  0.25450216  0.87854955  0.06628103     0.78050
O262        O  0.24467986  0.66483481  0.07021397    -0.60280
O263        O  0.19149077  0.66112749  0.03681757    -0.53310
C264        C  0.21508452  0.64782082  0.05998227     0.70060
O265        O  0.32919101  0.75344747  0.06518846    -0.74840
O266        O  0.33457727  0.80817708  0.03365794    -0.55410
C267        C  0.34683351  0.78289916  0.05585712     0.76060
O268        O  0.13215056  0.77366869  0.07595021    -0.59990
O269        O  0.12025913  0.71984574  0.04630286    -0.53110
C270        C  0.11160185  0.74530583  0.06977182     0.72650
Zr271      Zr  0.19236274  0.80065115  0.06004326     2.54710
O272        O  0.20694739  0.78835589  0.12474765    -0.80550
O273        O  0.14824302  0.84807085  0.07748454    -0.93970
Zr274      Zr  0.26954285  0.72537520  0.05157325     2.64680
O275        O  0.27140053  0.72761182  0.11905459    -0.98920
O276        O  0.31716843  0.67867323  0.04349891    -0.80990
O277        O  0.25663949  0.78954484  0.05452559    -0.84340
O278        O  0.20464725  0.73714540  0.05819778    -2.19050
O279        O  0.12171284  0.77846621  0.95261249    -0.67730
O280        O  0.12505650  0.71728235  0.95568317    -0.52300
C281        C  0.11250388  0.74685572  0.94042573     0.71040
O282        O  0.32426942  0.75861809  0.92888124    -0.60640
O283        O  0.31164500  0.81756804  0.94090749    -0.52620
C284        C  0.33411230  0.79278940  0.93036040     0.72840
O285        O  0.23292838  0.66738511  0.92866209    -0.72040
O286        O  0.18315035  0.66452414  0.96641448    -0.50710
C287        C  0.20365572  0.65056386  0.94177185     0.74220
O288        O  0.21365300  0.85933719  0.93156038    -0.67370
O289        O  0.26961156  0.87350379  0.95628183    -0.54560
C290        C  0.24241640  0.87977299  0.93379531     0.72600
Zr291      Zr  0.18390600  0.80418405  0.95109367     2.77540
O292        O  0.17945666  0.79804721  0.88406279    -0.98110
O293        O  0.13986669  0.85451057  0.94587071    -0.78940
Zr294      Zr  0.26329989  0.72837072  0.94230665     2.70070
O295        O  0.25646388  0.73610599  0.87556555    -0.80180
O296        O  0.31182284  0.68220939  0.93628130    -0.99270
Zr297      Zr  0.27704683  0.81945930  0.99845766     2.21500
Zr298      Zr  0.17465777  0.71639608  0.00350153     2.11130
O299        O  0.19836581  0.74116773  0.94645706    -2.47950
O300        O  0.24834940  0.79227225  0.94538326    -0.79980
O301        O  0.16086681  0.77959995  0.00717696    -0.72170
O302        O  0.29146984  0.75434926  0.99609098    -2.33130
O303        O  0.21171043  0.83015525  0.00430965    -2.29340
O304        O  0.23957096  0.70270568  0.99830723    -0.73930
H305        H  0.19455881  0.72497272  0.07997677     0.78070
H306        H  0.31796595  0.75049968  0.99472132     0.79150
H307        H  0.18635062  0.73010990  0.92542903     0.81380
H308        H  0.20631509  0.85613785  0.00513000     0.78990
H309        H  0.32691564  0.68280720  0.01803907     0.42020
H310        H  0.30330752  0.66127878  0.95189645     0.40990
H311        H  0.26849463  0.76004307  0.86994140     0.40670
H312        H  0.20512403  0.80231523  0.87486246     0.38600
H313        H  0.13595928  0.86278812  0.97172842     0.41730
H314        H  0.15262639  0.86825630  0.05939276     0.36520
H315        H  0.23198050  0.79912498  0.12824827     0.42640
H316        H  0.24746846  0.71675010  0.12742060     0.39050
H317        H  0.17480276  0.77168108  0.87942033     0.43970
H318        H  0.15776415  0.85759019  0.10123203     0.42690
H319        H  0.29026441  0.70909834  0.12599560     0.42830
H320        H  0.30976669  0.67333693  0.91045964     0.43190
O321        O  0.09224963  0.09497175  0.20636714    -0.75680
O322        O  0.06047743  0.07608762  0.25729683    -0.54590
C323        C  0.08625614  0.07206301  0.23261549     0.78050
O324        O  0.09052564  0.28195756  0.22568524    -0.60280
O325        O  0.05959898  0.28741309  0.17064532    -0.53310
C326        C  0.08252975  0.29893710  0.19530807     0.70060
O327        O  0.08682678  0.18991403  0.31037606    -0.74840
O328        O  0.05200338  0.13739762  0.31751472    -0.55410
C329        C  0.07615886  0.16100808  0.32872848     0.76060
O330        O  0.09725300  0.18021494  0.11852861    -0.59990
O331        O  0.06819706  0.23338895  0.10375199    -0.53110
C332        C  0.09334473  0.20858040  0.09776341     0.72650
Zr333      Zr  0.07762284  0.14943692  0.17389034     2.54710
O334        O  0.14388622  0.15906515  0.18277387    -0.80550
O335        O  0.08760319  0.10336910  0.12625900    -0.93970
Zr336      Zr  0.07161263  0.22249058  0.25219422     2.64680
O337        O  0.13927403  0.22102488  0.25318433    -0.98920
O338        O  0.06415815  0.26776825  0.30111352    -0.80990
O339        O  0.07408142  0.15886949  0.23842303    -0.84340
O340        O  0.07573394  0.21217120  0.18710610    -2.19050
O341        O  0.95372361  0.18024268  0.11461836    -0.67730
O342        O  0.98041819  0.23486535  0.10083177    -0.52300
C343        C  0.95650563  0.20920441  0.09422916     0.71040
O344        O  0.95130006  0.19293114  0.30831568    -0.60640
O345        O  0.96007489  0.13426461  0.29402786    -0.52620
C346        C  0.95209509  0.15879304  0.31772497     0.72840
O347        O  0.95762364  0.28356251  0.21991458    -0.72040
O348        O  0.96962342  0.27476675  0.15930644    -0.50710
C349        C  0.95907326  0.29501258  0.18595943     0.74220
O350        O  0.95001606  0.09177200  0.20313275    -0.67370
O351        O  0.97761847  0.07456303  0.25634077    -0.54560
C352        C  0.95290475  0.07012931  0.23120955     0.72600
Zr353      Zr  0.97073292  0.14448186  0.16821213     2.77540
O354        O  0.90424959  0.13772418  0.16197004    -0.98110
O355        O  0.97792962  0.09765137  0.12077254    -0.78940
Zr356      Zr  0.96323530  0.22082668  0.24673236     2.70070
O357        O  0.89684661  0.21421455  0.23591002    -0.80180
O358        O  0.94924446  0.26438761  0.29594859    -0.99270
Zr359      Zr  0.01813438  0.12944969  0.25991890     2.21500
Zr360      Zr  0.02167799  0.23422987  0.15611608     2.11130
O361        O  0.96612999  0.20729651  0.18227608    -2.47950
O362        O  0.96480951  0.15689556  0.23216555    -0.79980
O363        O  0.02493328  0.17067388  0.14243227    -0.72170
O364        O  0.01670264  0.19427086  0.27493089    -2.33130
O365        O  0.02362794  0.11864483  0.19487116    -2.29340
O366        O  0.01861718  0.24743282  0.22193943    -0.73930
H367        H  0.09786801  0.22389972  0.17729552     0.78070
H368        H  0.01620428  0.19812158  0.30139114     0.79150
H369        H  0.94350552  0.21636225  0.17132350     0.81380
H370        H  0.02439699  0.09270513  0.18934111     0.78990
H371        H  0.03709340  0.26814776  0.30628805     0.42020
H372        H  0.96660614  0.28523474  0.29191849     0.40990
H373        H  0.89074739  0.18918994  0.24511659     0.40670
H374        H  0.89482372  0.16322731  0.16300134     0.38600
H375        H  0.99320656  0.10960470  0.10112955     0.41730
H376        H  0.06525512  0.08744780  0.12765606     0.36520
H377        H  0.14812065  0.15298145  0.20922525     0.42640
H378        H  0.14720138  0.23035770  0.22848124     0.39050
H379        H  0.90114866  0.13010651  0.13588508     0.43970
H380        H  0.10787856  0.08784148  0.13589856     0.42690
H381        H  0.14629091  0.24076362  0.27060094     0.42830
H382        H  0.92441722  0.27426489  0.28984669     0.43190
O383        O  0.13721463  0.90047189  0.19769486    -0.75680
O384        O  0.11872360  0.93035993  0.24947816    -0.54590
C385        C  0.11479980  0.90450387  0.22510566     0.78050
O386        O  0.32495945  0.90996913  0.20854056    -0.60280
O387        O  0.33286992  0.94915939  0.15985428    -0.53310
C388        C  0.34329523  0.92226025  0.17975744     0.70060
O389        O  0.23807860  0.91740752  0.30652931    -0.74840
O390        O  0.17679822  0.92672197  0.29741082    -0.55410
C391        C  0.20386140  0.91825805  0.31820321     0.76060
O392        O  0.22323172  0.90605335  0.11314182    -0.59990
O393        O  0.27755877  0.93494399  0.09993665    -0.53110
C394        C  0.25275745  0.90959868  0.09377060     0.72650
Zr395      Zr  0.19105500  0.92450985  0.16667987     2.54710
O396        O  0.19530938  0.85785319  0.16717114    -0.80550
O397        O  0.14382417  0.92515498  0.11857885    -0.93970
Zr398      Zr  0.26784939  0.92817163  0.24427320     2.64680
O399        O  0.26612061  0.86139691  0.24856474    -0.98920
O400        O  0.31888368  0.93402459  0.28783444    -0.80990
O401        O  0.20333924  0.92321001  0.23056868    -0.84340
O402        O  0.25526288  0.92754339  0.17955533    -2.19050
O403        O  0.22029307  0.04957653  0.10897526    -0.67730
O404        O  0.27696526  0.02520210  0.09706888    -0.52300
C405        C  0.25003696  0.04710123  0.08923676     0.71040
O406        O  0.22899849  0.05604084  0.29885440    -0.60640
O407        O  0.17993331  0.01702681  0.30613306    -0.52620
C408        C  0.20059769  0.04381788  0.31707117     0.72840
O409        O  0.32143596  0.05572551  0.21802435    -0.72040
O410        O  0.33189624  0.02374401  0.16451084    -0.50710
C411        C  0.34195474  0.04647907  0.19027084     0.74220
O412        O  0.13520511  0.04558027  0.20271672    -0.67370
O413        O  0.11725257  0.01608983  0.25489928    -0.54560
C414        C  0.11351886  0.04186352  0.23078387     0.72600
Zr415      Zr  0.18637552  0.02995192  0.16350648     2.77540
O416        O  0.17960569  0.09602244  0.16210823    -0.98110
O417        O  0.13785357  0.02565712  0.11700736    -0.78940
Zr418      Zr  0.26088573  0.03624055  0.24222896     2.70070
O419        O  0.25579173  0.10273584  0.23643439    -0.80180
O420        O  0.30544607  0.03362695  0.29271558    -0.99270
Zr421      Zr  0.17154107  0.97578167  0.25354829     2.21500
Zr422      Zr  0.27832165  0.98301603  0.15088961     2.11130
O423        O  0.25010240  0.03625185  0.17718937    -2.47950
O424        O  0.19686703  0.03140736  0.22788180    -0.79980
O425        O  0.21397398  0.97807369  0.13698164    -0.72170
O426        O  0.23682882  0.98087086  0.26834464    -2.33130
O427        O  0.15958617  0.97607615  0.18875613    -2.29340
O428        O  0.29006789  0.98367709  0.21658005    -0.73930
H429        H  0.26714702  0.90625046  0.16896257     0.78070
H430        H  0.24054877  0.98228687  0.29479182     0.79150
H431        H  0.26034509  0.05851378  0.16643998     0.81380
H432        H  0.13329815  0.97465680  0.18363360     0.78990
H433        H  0.30938306  0.95074353  0.30726822     0.42020
H434        H  0.32567981  0.01764039  0.28347607     0.40990
H435        H  0.22871651  0.10754121  0.23700964     0.40670
H436        H  0.20485271  0.10543019  0.16735512     0.38600
H437        H  0.15130547  0.02218879  0.09321672     0.41730
H438        H  0.14694433  0.94925548  0.10602861     0.36520
H439        H  0.20208513  0.85141718  0.19297705     0.42640
H440        H  0.27125583  0.85295259  0.22296896     0.39050
H441        H  0.17532434  0.10191655  0.13570142     0.43970
H442        H  0.11974222  0.92702784  0.13190185     0.42690
H443        H  0.28877162  0.85490859  0.26256488     0.42830
H444        H  0.31661971  0.05852280  0.29343077     0.43190
O445        O  0.33901755  0.18818212  0.05124509    -0.75680
O446        O  0.34145941  0.13520029  0.01725877    -0.54590
C447        C  0.35553089  0.15855737  0.03948510     0.78050
O448        O  0.14385025  0.18113846  0.07005218    -0.60280
O449        O  0.12915754  0.23618511  0.04479527    -0.53310
C450        C  0.12299079  0.20957909  0.06805970     0.70060
O451        O  0.21774790  0.08707287  0.05267673    -0.74840
O452        O  0.27881590  0.08392759  0.03853490    -0.55410
C453        C  0.24990352  0.07343513  0.05754906     0.76060
O454        O  0.25483522  0.28300187  0.06422949    -0.59990
O455        O  0.19760499  0.29072162  0.03761337    -0.53110
C456        C  0.22512160  0.30178148  0.05772492     0.72650
Zr457      Zr  0.27899344  0.22267441  0.04430866     2.54710
O458        O  0.28371901  0.21934328  0.11159979    -0.80550
O459        O  0.32789542  0.26871283  0.03733953    -0.93970
Zr460      Zr  0.19909598  0.14982377  0.05029867     2.64680
O461        O  0.21849024  0.15288570  0.11481541    -0.98920
O462        O  0.14906283  0.10865121  0.06954351    -0.80990
O463        O  0.26407351  0.15897509  0.04628031    -0.84340
O464        O  0.21335841  0.21300489  0.05056826    -2.19050
O465        O  0.23691060  0.28226136  0.91646910    -0.67730
O466        O  0.18704237  0.28951872  0.95546546    -0.52300
C467        C  0.20780030  0.29968882  0.92790239     0.71040
O468        O  0.21531216  0.09137900  0.92239545    -0.60640
O469        O  0.27172964  0.07875463  0.94776706    -0.52620
C470        C  0.24388052  0.07082587  0.92677085     0.72840
O471        O  0.13596301  0.18062777  0.92934425    -0.72040
O472        O  0.12435570  0.23471198  0.95775526    -0.50710
C473        C  0.11596123  0.20896146  0.93438253     0.74220
O474        O  0.32794575  0.19675002  0.91709933    -0.67370
O475        O  0.33353993  0.14000284  0.94470854    -0.54560
C476        C  0.34533000  0.16640946  0.92366665     0.72600
Zr477      Zr  0.26890452  0.22534043  0.93577815     2.77540
O478        O  0.26533357  0.22128841  0.86846537    -0.98110
O479        O  0.31514036  0.27429641  0.93715075    -0.78940
Zr480      Zr  0.19187037  0.15017694  0.94221456     2.70070
O481        O  0.19996421  0.15992516  0.87589277    -0.80180
O482        O  0.13975281  0.10713422  0.94227223    -0.99270
Zr483      Zr  0.28244167  0.13206750  0.98846313     2.21500
Zr484      Zr  0.18106974  0.23848375  0.99836770     2.11130
O485        O  0.20412955  0.21378101  0.94117764    -2.47950
O486        O  0.25586249  0.16096675  0.93553984    -0.79980
O487        O  0.24714678  0.24958450  0.99297521    -0.72170
O488        O  0.21771421  0.12206235  0.99378270    -2.33130
O489        O  0.29749866  0.19679283  0.98743055    -2.29340
O490        O  0.16826153  0.17434358  0.99852149    -0.73930
H491        H  0.20453707  0.22403972  0.07329006     0.78070
H492        H  0.21115492  0.09643017  0.99162659     0.79150
H493        H  0.19173638  0.22474433  0.92018952     0.81380
H494        H  0.32395008  0.20067214  0.98520100     0.78990
H495        H  0.13648371  0.10204655  0.04615840     0.42020
H496        H  0.14927076  0.08465898  0.95452460     0.40990
H497        H  0.22669944  0.15572259  0.87092859     0.40670
H498        H  0.23973767  0.22909250  0.86239806     0.38600
H499        H  0.30655383  0.29080872  0.95718018     0.41730
H500        H  0.34323320  0.26017582  0.01617484     0.36520
H501        H  0.29758777  0.19638293  0.11651052     0.42640
H502        H  0.24462166  0.14444888  0.11500094     0.39050
H503        H  0.28134514  0.24161587  0.85922628     0.43970
H504        H  0.34383503  0.26518667  0.05934104     0.42690
H505        H  0.21975797  0.17935803  0.12078516     0.42830
H506        H  0.12173067  0.11716011  0.96045574     0.43190
O507        O  0.90173182  0.04640615  0.20405327    -0.75680
O508        O  0.91801325  0.01560348  0.25606792    -0.54590
C509        C  0.92316283  0.04140748  0.23154619     0.78050
O510        O  0.71214690  0.04123344  0.22314873    -0.60280
O511        O  0.70589103  0.01648340  0.16510845    -0.53310
C512        C  0.69414637  0.03566551  0.19303544     0.70060
O513        O  0.80283431  0.04287783  0.30691779    -0.74840
O514        O  0.85580596  0.00918746  0.31272778    -0.55410
C515        C  0.83228904  0.03278490  0.32448470     0.76060
O516        O  0.82106617  0.04564547  0.11325661    -0.59990
O517        O  0.76423839  0.02218802  0.10030644    -0.53110
C518        C  0.79185058  0.04404151  0.09334848     0.72650
Zr519      Zr  0.84880002  0.02858441  0.17038544     2.54710
O520        O  0.84121709  0.09478326  0.17440140    -0.80550
O521        O  0.89921879  0.03389912  0.12515198    -0.93970
Zr522      Zr  0.77272343  0.02623506  0.24807975     2.64680
O523        O  0.77505584  0.09312116  0.24614513    -0.98920
O524        O  0.72652206  0.02193614  0.29767267    -0.80990
O525        O  0.83714456  0.02675437  0.23469078    -0.84340
O526        O  0.78473878  0.03011384  0.18297429    -2.19050
O527        O  0.82037989  0.90496296  0.11079194    -0.67730
O528        O  0.76574371  0.93290183  0.09818993    -0.52300
C529        C  0.79138506  0.90875957  0.09083760     0.71040
O530        O  0.79200300  0.90614496  0.30620901    -0.60640
O531        O  0.85161427  0.91405581  0.29159304    -0.52620
C532        C  0.82626292  0.90762519  0.31582241     0.72840
O533        O  0.71563447  0.89707735  0.20623425    -0.72040
O534        O  0.70707037  0.93961079  0.16071894    -0.50710
C535        C  0.69764795  0.91040598  0.17826378     0.74220
O536        O  0.90086961  0.90224211  0.20298666    -0.67370
O537        O  0.91820242  0.92948196  0.25613054    -0.54560
C538        C  0.92219411  0.90463755  0.23117482     0.72600
Zr539      Zr  0.84927471  0.92299082  0.16705598     2.77540
O540        O  0.84947979  0.85636613  0.16617199    -0.98110
O541        O  0.89978422  0.92557206  0.12174251    -0.78940
Zr542      Zr  0.76963181  0.91857169  0.24297822     2.70070
O543        O  0.77802654  0.85218453  0.24349109    -0.80180
O544        O  0.71597027  0.92032662  0.28455073    -0.99270
Zr545      Zr  0.86423898  0.97153206  0.25786839     2.21500
Zr546      Zr  0.76033854  0.97724199  0.15234577     2.11130
O547        O  0.78458026  0.92159126  0.17846441    -2.47950
O548        O  0.83498060  0.91908695  0.23062697    -0.79980
O549        O  0.82526198  0.97688032  0.14005593    -0.72170
O550        O  0.79821309  0.97119476  0.27129422    -2.33130
O551        O  0.87729739  0.97494883  0.19300063    -2.29340
O552        O  0.74648965  0.97431593  0.21797931    -0.73930
H553        H  0.77401500  0.05231775  0.17292130     0.78070
H554        H  0.79366628  0.97127818  0.29771707     0.79150
H555        H  0.77418043  0.90035782  0.16635956     0.81380
H556        H  0.90373820  0.97512115  0.18807342     0.78990
H557        H  0.72473552  0.99535144  0.30345600     0.42020
H558        H  0.69594023  0.93176891  0.26979662     0.40990
H559        H  0.80488872  0.84864867  0.24807347     0.40670
H560        H  0.82365647  0.84914340  0.16022810     0.38600
H561        H  0.89175043  0.94413143  0.10328737     0.41730
H562        H  0.91468789  0.01181629  0.12924393     0.36520
H563        H  0.84251472  0.10014636  0.20126532     0.42640
H564        H  0.76425203  0.09999434  0.22190543     0.39050
H565        H  0.86399459  0.85084908  0.14351076     0.43970
H566        H  0.91474043  0.05457945  0.13386078     0.42690
H567        H  0.75621663  0.10088885  0.26465371     0.42830
H568        H  0.70831712  0.89429888  0.28748678     0.43190
O569        O  0.81991498  0.09544678  0.06946644    -0.75680
O570        O  0.76814932  0.07825180  0.03903006    -0.54590
C571        C  0.79256171  0.07351604  0.06455218     0.78050
O572        O  0.79732183  0.28115410  0.07687745    -0.60280
O573        O  0.84819401  0.29177860  0.04020925    -0.53310
C574        C  0.82590463  0.30062864  0.06680625     0.70060
O575        O  0.71744006  0.18286032  0.07472228    -0.74840
O576        O  0.71415897  0.13229005  0.03826368    -0.55410
C577        C  0.70181609  0.15238997  0.06468632     0.76060
O578        O  0.90640412  0.18105914  0.06879375    -0.59990
O579        O  0.91862609  0.23648558  0.04248240    -0.53110
C580        C  0.92636246  0.20994764  0.06546360     0.72650
Zr581      Zr  0.85076866  0.15108674  0.05223919     2.54710
O582        O  0.83948971  0.15907979  0.11831864    -0.80550
O583        O  0.89991252  0.10606922  0.06057205    -0.93970
Zr584      Zr  0.77034581  0.22235629  0.05399157     2.64680
O585        O  0.76831759  0.22059688  0.12156200    -0.98920
O586        O  0.71926315  0.26538641  0.04613421    -0.80990
O587        O  0.78649344  0.15914671  0.05216669    -0.84340
O588        O  0.83600767  0.21399971  0.05439698    -2.19050
O589        O  0.91710460  0.18066869  0.94951120    -0.67730
O590        O  0.91427453  0.24183733  0.95239692    -0.52300
C591        C  0.92721820  0.21233009  0.93742808     0.71040
O592        O  0.71424949  0.19385322  0.92666861    -0.60640
O593        O  0.71412335  0.13741255  0.95485100    -0.52620
C594        C  0.69927111  0.16251331  0.93455162     0.72840
O595        O  0.79631237  0.28513653  0.92708190    -0.72040
O596        O  0.84950183  0.29401657  0.96047294    -0.50710
C597        C  0.82502884  0.30403631  0.93635566     0.74220
O598        O  0.82981130  0.09551547  0.92539006    -0.67370
O599        O  0.77490970  0.07970869  0.95310382    -0.54560
C600        C  0.80203131  0.07376863  0.93022795     0.72600
Zr601      Zr  0.85551481  0.15348924  0.94438535     2.77540
O602        O  0.85700640  0.16708467  0.87855170    -0.98110
O603        O  0.90113603  0.10482985  0.93821413    -0.78940
Zr604      Zr  0.77244109  0.22427950  0.94441960     2.70070
O605        O  0.77705662  0.22189312  0.87703707    -0.80180
O606        O  0.72110498  0.26761203  0.94814000    -0.99270
Zr607      Zr  0.76601298  0.13155471  0.99613263     2.21500
Zr608      Zr  0.86335535  0.24125865  0.99989115     2.11130
O609        O  0.83822662  0.21616467  0.94408246    -2.47950
O610        O  0.79019485  0.16131326  0.94206443    -0.79980
O611        O  0.87890755  0.17797870  0.99963518    -0.72170
O612        O  0.74773366  0.19520771  0.99846757    -2.33130
O613        O  0.83116704  0.12307891  0.99724482    -2.29340
O614        O  0.79700318  0.24975920  0.99975711    -0.73930
H615        H  0.84635587  0.22470255  0.07651654     0.78070
H616        H  0.72099082  0.19729690  0.99862079     0.79150
H617        H  0.84872058  0.22859280  0.92268530     0.81380
H618        H  0.83770156  0.09734296  0.99734324     0.78990
H619        H  0.69810849  0.25014651  0.03777513     0.42020
H620        H  0.72980588  0.28706470  0.96512240     0.40990
H621        H  0.77656487  0.19534150  0.87118072     0.40670
H622        H  0.87043187  0.19074483  0.87600048     0.38600
H623        H  0.90835342  0.09892597  0.96402355     0.41730
H624        H  0.89822351  0.09003422  0.03855237     0.36520
H625        H  0.81354601  0.15078660  0.12252120     0.42640
H626        H  0.79391318  0.22671750  0.12938000     0.39050
H627        H  0.87470931  0.14862655  0.86933656     0.43970
H628        H  0.89119017  0.09044875  0.08143054     0.42690
H629        H  0.75332730  0.24226204  0.12864766     0.42830
H630        H  0.72041983  0.27959049  0.92340168     0.43190
O631        O  0.10036116  0.86114947  0.79544570    -0.75680
O632        O  0.06840310  0.87555164  0.74311028    -0.54590
C633        C  0.09259790  0.88280699  0.76829326     0.78050
O634        O  0.10091919  0.67097696  0.77453084    -0.60280
O635        O  0.06570706  0.66430841  0.82682001    -0.53310
C636        C  0.09151989  0.65367609  0.80427951     0.70060
O637        O  0.09923094  0.75635740  0.69040144    -0.74840
O638        O  0.06644544  0.80987674  0.68423714    -0.55410
C639        C  0.08996680  0.78545856  0.67267344     0.76060
O640        O  0.09902020  0.77517090  0.88431843    -0.59990
O641        O  0.06753151  0.72188616  0.89615930    -0.53110
C642        C  0.09118855  0.74724218  0.90500784     0.72650
Zr643      Zr  0.08625114  0.80231304  0.82413486     2.54710
O644        O  0.15104646  0.78861383  0.81028351    -0.80550
O645        O  0.10263329  0.84541430  0.87261769    -0.93970
Zr646      Zr  0.07727281  0.72760507  0.74699776     2.64680
O647        O  0.14479480  0.72643679  0.74090784    -0.98920
O648        O  0.06445197  0.68026376  0.70133304    -0.80990
O649        O  0.08256032  0.79155453  0.75979142    -0.84340
O650        O  0.08271812  0.73889158  0.81165452    -2.19050
O651        O  0.97781394  0.78166414  0.89439328    -0.67730
O652        O  0.98052964  0.72038906  0.89142655    -0.52300
C653        C  0.96567893  0.74993821  0.90406863     0.71040
O654        O  0.93987934  0.77262508  0.70114059    -0.60640
O655        O  0.97943506  0.82081613  0.69355588    -0.52620
C656        C  0.95014947  0.80296620  0.68458451     0.72840
O657        O  0.94602661  0.67659261  0.78678263    -0.72040
O658        O  0.98507325  0.66599203  0.83540718    -0.50710
C659        C  0.95687619  0.65761863  0.81543275     0.74220
O660        O  0.95745949  0.86027145  0.79933172    -0.67370
O661        O  0.98311027  0.87365189  0.74331843    -0.54560
C662        C  0.95941017  0.87970685  0.76966479     0.72600
Zr663      Zr  0.97765916  0.80699765  0.83210491     2.77540
O664        O  0.91084954  0.79946491  0.83526682    -0.98110
O665        O  0.97257949  0.85752474  0.87571061    -0.78940
Zr666      Zr  0.96690243  0.73338665  0.75241514     2.70070
O667        O  0.89932583  0.73235337  0.75612931    -0.80180
O668        O  0.97051963  0.68980449  0.70155083    -0.99270
Zr669      Zr  0.02734085  0.82137143  0.73938821     2.21500
Zr670      Zr  0.02707156  0.71697426  0.84071084     2.11130
O671        O  0.97147729  0.74432627  0.81738913    -2.47950
O672        O  0.97272818  0.79641842  0.76788009    -0.79980
O673        O  0.03235048  0.78026894  0.85449353    -0.72170
O674        O  0.02247020  0.75712117  0.72416041    -2.33130
O675        O  0.03155800  0.83247365  0.80445559    -2.29340
O676        O  0.02194673  0.70482114  0.77555872    -0.73930
H677        H  0.10434583  0.72691501  0.82178086     0.78070
H678        H  0.02078869  0.75407547  0.69761401     0.79150
H679        H  0.94989112  0.73395985  0.82962561     0.81380
H680        H  0.03228623  0.85843641  0.80984866     0.78990
H681        H  0.05097886  0.69309759  0.68125149     0.42020
H682        H  0.98040449  0.66706825  0.71298705     0.40990
H683        H  0.89277532  0.75544819  0.76897484     0.40670
H684        H  0.90638755  0.77514027  0.84687369     0.38600
H685        H  0.99864973  0.86434612  0.88107159     0.41730
H686        H  0.08743014  0.86750750  0.86764282     0.36520
H687        H  0.15403766  0.79389564  0.78343780     0.42640
H688        H  0.15407992  0.72145937  0.76623302     0.39050
H689        H  0.90401204  0.81724741  0.85466227     0.43970
H690        H  0.12847287  0.85287579  0.86678285     0.42690
H691        H  0.15028527  0.70375782  0.72686424     0.42830
H692        H  0.94427394  0.68388853  0.69596971     0.43190
O693        O  0.81452947  0.05488839  0.70006627    -0.75680
O694        O  0.85816457  0.01126440  0.68862480    -0.54590
C695        C  0.84048977  0.04049497  0.68011562     0.78050
O696        O  0.83619700  0.03423770  0.89321461    -0.60280
O697        O  0.77407989  0.02485796  0.89437622    -0.53310
C698        C  0.80355040  0.04150141  0.90549233     0.70060
O699        O  0.92129595  0.03081844  0.80487627    -0.74840
O700        O  0.91652294  0.02432567  0.74325947    -0.55410
C701        C  0.92944841  0.04096986  0.77191439     0.76060
O702        O  0.72258626  0.05434393  0.78942230    -0.59990
O703        O  0.71571054  0.01736672  0.84005840    -0.53110
C704        C  0.70485086  0.04355910  0.81913207     0.72650
Zr705      Zr  0.78011406  0.03402912  0.75550687     2.54710
O706        O  0.78022109  0.10091949  0.75528576    -0.80550
O707        O  0.73247809  0.02926903  0.70809150    -0.93970
Zr708      Zr  0.85976863  0.02656509  0.83090408     2.64680
O709        O  0.85362129  0.09204038  0.81960265    -0.98920
O710        O  0.90665091  0.03949771  0.87720659    -0.80990
O711        O  0.84548384  0.02984254  0.76717096    -0.84340
O712        O  0.79554291  0.03327017  0.81933529    -2.19050
O713        O  0.71504462  0.91085100  0.78568418    -0.67730
O714        O  0.71105836  0.94725562  0.83687534    -0.52300
C715        C  0.69816087  0.92270993  0.81518319     0.71040
O716        O  0.90632783  0.90252780  0.79600492    -0.60640
O717        O  0.92369116  0.93201612  0.74328562    -0.52620
C718        C  0.92871098  0.90723774  0.76858194     0.72840
O719        O  0.83004018  0.92974917  0.89214396    -0.72040
O720        O  0.76883602  0.93526276  0.89601816    -0.50710
C721        C  0.79871103  0.91878817  0.90504510     0.74220
O722        O  0.80591562  0.90792753  0.69276950    -0.67370
O723        O  0.86339544  0.93502328  0.68799207    -0.54560
C724        C  0.83741259  0.91409176  0.67581181     0.72600
Zr725      Zr  0.77428787  0.92490317  0.75235034     2.77540
O726        O  0.77302935  0.85795611  0.75309908    -0.98110
O727        O  0.72670214  0.92969885  0.70495963    -0.78940
Zr728      Zr  0.85092038  0.91881416  0.82906871     2.70070
O729        O  0.82845748  0.85595350  0.82727936    -0.80180
O730        O  0.89865345  0.89206158  0.86735367    -0.99270
Zr731      Zr  0.86935785  0.97412575  0.74158809     2.21500
Zr732      Zr  0.76829516  0.97907038  0.84473188     2.11130
O733        O  0.78689112  0.92215293  0.81715262    -2.47950
O734        O  0.83883126  0.92032962  0.76489651    -0.79980
O735        O  0.75272700  0.98012440  0.78034460    -0.72170
O736        O  0.88279952  0.97089830  0.80591791    -2.33130
O737        O  0.80361901  0.97866450  0.72878662    -2.29340
O738        O  0.83239093  0.97392184  0.85769851    -0.73930
H739        H  0.78596545  0.05513917  0.83100426     0.78070
H740        H  0.90900004  0.96804259  0.81070819     0.79150
H741        H  0.77395083  0.90172963  0.82872213     0.81380
H742        H  0.79908867  0.97931285  0.70241624     0.78990
H743        H  0.91509260  0.01495506  0.88559706     0.42020
H744        H  0.90204202  0.90967890  0.88788625     0.40990
H745        H  0.84103651  0.84524590  0.80534513     0.40670
H746        H  0.76367977  0.85120265  0.77815607     0.38600
H747        H  0.71245090  0.95193220  0.71173071     0.41730
H748        H  0.74569697  0.02045007  0.68566741     0.36520
H749        H  0.80666184  0.10782185  0.75832413     0.42640
H750        H  0.83727009  0.10074796  0.83990758     0.39050
H751        H  0.75247044  0.85138858  0.73625527     0.43970
H752        H  0.72593757  0.05505282  0.70221050     0.42690
H753        H  0.87843941  0.10182505  0.82559970     0.42830
H754        H  0.88529911  0.87104671  0.87859841     0.43190
O755        O  0.71196323  0.76275723  0.05744863    -0.75680
O756        O  0.72075425  0.82242291  0.04185030    -0.54590
C757        C  0.70056904  0.79664697  0.05470027     0.78050
O758        O  0.91458414  0.77907736  0.04741017    -0.60280
O759        O  0.91218359  0.71786722  0.03995785    -0.53310
C760        C  0.92443985  0.74656625  0.05701155     0.70060
O761        O  0.81854390  0.85777997  0.06437491    -0.74840
O762        O  0.76566786  0.87487697  0.03549709    -0.55410
C763        C  0.79078582  0.87956678  0.06080899     0.76060
O764        O  0.80721565  0.67170824  0.06556760    -0.59990
O765        O  0.85115629  0.66212571  0.02152833    -0.53110
C766        C  0.83408157  0.65242419  0.05097495     0.72650
Zr767      Zr  0.77249568  0.72929490  0.04625708     2.54710
O768        O  0.77060921  0.73363068  0.11363684    -0.80550
O769        O  0.72648227  0.68013108  0.04476704    -0.93970
Zr770      Zr  0.85209254  0.80409822  0.04498342     2.64680
O771        O  0.85290602  0.79150150  0.11132214    -0.98920
O772        O  0.89446934  0.85551780  0.05369818    -0.80990
O773        O  0.78742850  0.79302315  0.04514318    -0.84340
O774        O  0.83780516  0.74083435  0.04568792    -2.19050
O775        O  0.79736976  0.67005077  0.92130588    -0.67730
O776        O  0.85339419  0.66416151  0.95037554    -0.52300
C777        C  0.82659466  0.65191621  0.93013317     0.71040
O778        O  0.82711688  0.86448382  0.92029363    -0.60640
O779        O  0.77136412  0.87543458  0.94878117    -0.52620
C780        C  0.79851710  0.88435974  0.92666068     0.72840
O781        O  0.91065561  0.77845231  0.91982306    -0.72040
O782        O  0.92096058  0.72368076  0.94889663    -0.50710
C783        C  0.93055405  0.74996641  0.92625286     0.74220
O784        O  0.71313614  0.75526542  0.92034308    -0.67370
O785        O  0.70562650  0.80960788  0.95127010    -0.54560
C786        C  0.69412972  0.78377466  0.92892654     0.72600
Zr787      Zr  0.77341619  0.73072686  0.93657068     2.77540
O788        O  0.77674078  0.73421564  0.86912231    -0.98110
O789        O  0.72510319  0.68377372  0.93962704    -0.78940
Zr790      Zr  0.85198062  0.80566595  0.93657703     2.70070
O791        O  0.84102702  0.79693543  0.87087081    -0.80180
O792        O  0.90345665  0.84941404  0.93858863    -0.99270
Zr793      Zr  0.76236895  0.82184110  0.99055731     2.21500
Zr794      Zr  0.86488235  0.71745128  0.98945533     2.11130
O795        O  0.83860522  0.74223654  0.93455584    -2.47950
O796        O  0.78704322  0.79492417  0.93563211    -0.79980
O797        O  0.79928110  0.70532648  0.99100125    -0.72170
O798        O  0.82777395  0.83224119  0.99112198    -2.33130
O799        O  0.74789706  0.75684640  0.99136104    -2.29340
O800        O  0.87878222  0.78078884  0.99020212    -0.73930
H801        H  0.84860780  0.72918356  0.06714821     0.78070
H802        H  0.83332591  0.85822635  0.99165885     0.79150
H803        H  0.84966324  0.73128184  0.91276898     0.81380
H804        H  0.72139040  0.75271575  0.99127431     0.78990
H805        H  0.90191386  0.86295400  0.02821747     0.42020
H806        H  0.89320942  0.87131199  0.95117382     0.40990
H807        H  0.81369646  0.79792635  0.86819346     0.40670
H808        H  0.80026608  0.72176505  0.86243330     0.38600
H809        H  0.72933715  0.67087784  0.96349288     0.41730
H810        H  0.70562159  0.69041037  0.03030034     0.36520
H811        H  0.76001417  0.75820893  0.11862662     0.42640
H812        H  0.82671061  0.78606964  0.11796644     0.39050
H813        H  0.75702555  0.71723663  0.86065919     0.43970
H814        H  0.71682535  0.67859456  0.07054309     0.42690
H815        H  0.86591840  0.76777879  0.11431020     0.42830
H816        H  0.92105708  0.83900838  0.95681237     0.43190
C817        C  0.90963113  0.56214034  0.81896132    -0.02240
C818        C  0.92106027  0.55102244  0.85513924     0.07440
C819        C  0.93717636  0.57765310  0.87793324    -0.02350
C820        C  0.93943384  0.61408407  0.86626292    -0.02360
C821        C  0.93673906  0.62346757  0.82836188     0.07570
C822        C  0.92038194  0.59727605  0.80459665    -0.02550
Br823      Br  0.91374983  0.60834571  0.75271443    -0.01100
Br824      Br  0.88204271  0.52908206  0.78757014    -0.01170
Br825      Br  0.94103027  0.65092381  0.90399113    -0.01130
Br826      Br  0.96023468  0.56529035  0.92397785    -0.01110
C827        C  0.85702473  0.55835230  0.94416072    -0.02240
C828        C  0.85958098  0.54243988  0.90877110     0.07440
C829        C  0.83836530  0.56005950  0.88058629    -0.02350
C830        C  0.82798881  0.59746507  0.88483998    -0.02360
C831        C  0.82864912  0.61256955  0.92063454     0.07570
C832        C  0.83501396  0.58877351  0.94992983    -0.02550
Br833      Br  0.80444382  0.59121896  0.99342729    -0.01100
Br834      Br  0.89202100  0.55254204  0.98142606    -0.01170
Br835      Br  0.81157179  0.62612902  0.84325521    -0.01130
Br836      Br  0.81270772  0.53130919  0.84466577    -0.01110
C837        C  0.91994300  0.40015532  0.82218329    -0.02240
C838        C  0.93624425  0.41274226  0.85545386     0.07440
C839        C  0.96134047  0.38949965  0.87422325    -0.02350
C840        C  0.96705830  0.35349370  0.86183490    -0.02360
C841        C  0.95462039  0.34228838  0.82606318     0.07570
C842        C  0.93043882  0.36600008  0.80652516    -0.02550
Br843      Br  0.91103901  0.35244132  0.75879944    -0.01100
Br844      Br  0.88245154  0.42952858  0.79845833    -0.01170
Br845      Br  0.98803529  0.31896665  0.89781536    -0.01130
Br846      Br  0.98755936  0.40484822  0.91833469    -0.01110
C847        C  0.88980052  0.37235466  0.90998650    -0.02240
C848        C  0.87128165  0.40666383  0.90700065     0.07440
C849        C  0.83163361  0.40427736  0.90550207    -0.02350
C850        C  0.81351589  0.37083636  0.91596170    -0.02360
C851        C  0.83434535  0.33811797  0.91559022     0.07570
C852        C  0.87040734  0.34036102  0.90193418    -0.02550
Br853      Br  0.89531007  0.29656471  0.88568604    -0.01100
Br854      Br  0.92032324  0.36224652  0.95160247    -0.01170
Br855      Br  0.76177151  0.36989590  0.92927897    -0.01130
Br856      Br  0.80300298  0.44140216  0.88116444    -0.01110
C857        C  0.93116143  0.57616892  0.13889215    -0.02240
C858        C  0.92080424  0.54425972  0.15816389     0.07440
C859        C  0.90868447  0.54986177  0.19560678    -0.02350
C860        C  0.91558284  0.58506565  0.21236730    -0.02360
C861        C  0.92404334  0.61549427  0.18874839     0.07570
C862        C  0.91872063  0.60990358  0.15134029    -0.02550
Br863      Br  0.91329029  0.65172729  0.11887200    -0.01100
Br864      Br  0.98232988  0.57816347  0.13419152    -0.01170
Br865      Br  0.91520953  0.59060793  0.26529517    -0.01130
Br866      Br  0.88830863  0.51017616  0.22441912    -0.01110
C867        C  0.84212760  0.55924457  0.10413940    -0.02240
C868        C  0.87647668  0.54567708  0.09055235     0.07440
C869        C  0.89764889  0.56862477  0.06671656    -0.02350
C870        C  0.88425433  0.60312477  0.05496526    -0.02360
C871        C  0.84838028  0.61622204  0.06682792     0.07570
C872        C  0.82780438  0.59371613  0.09199305    -0.02550
Br873      Br  0.77980093  0.60912740  0.11011216    -0.01100
Br874      Br  0.81601567  0.53172529  0.14207863    -0.01170
Br875      Br  0.91973193  0.63299567  0.02576323    -0.01130
Br876      Br  0.94808851  0.55599990  0.05312529    -0.01110
C877        C  0.95172214  0.38019745  0.12628379    -0.02240
C878        C  0.92781789  0.40344058  0.14679299     0.07440
C879        C  0.91183921  0.38946346  0.18003119    -0.02110
C880        C  0.92125162  0.35397768  0.19337162    -0.02360
C881        C  0.94887878  0.33319511  0.17490955     0.07570
C882        C  0.96537316  0.34791234  0.14212566    -0.02550
Br883      Br  0.00878943  0.32610285  0.11836047    -0.01100
Br884      Br  0.96541680  0.38932927  0.07540377    -0.01170
Br885      Br  0.89480822  0.33390671  0.23565515    -0.01130
Br886      Br  0.87475547  0.41758010  0.20578121    -0.01110
C887        C  0.81309824  0.36313866  0.10075646    -0.02240
C888        C  0.83705562  0.33543243  0.08636104     0.07440
C889        C  0.87473944  0.34500007  0.08378631    -0.02350
C890        C  0.88301294  0.38143983  0.07668935    -0.02360
C891        C  0.86504689  0.40817158  0.09719711     0.07570
C892        C  0.82849073  0.39865128  0.10986155    -0.02550
Br893      Br  0.79988780  0.43312971  0.13796584    -0.01100
Br894      Br  0.76113631  0.35310668  0.10794919    -0.01170
Br895      Br  0.88125479  0.39015090  0.02523567    -0.01130
Br896      Br  0.91384348  0.30949754  0.07881614    -0.01110
C897        C  0.84368529  0.47837340  0.02485762    -0.02240
C898        C  0.87762968  0.47561117  0.04468988     0.07440
C899        C  0.91033591  0.47193093  0.02334626    -0.02350
C900        C  0.90924930  0.47024007  0.98420000    -0.02360
C901        C  0.87613356  0.47279205  0.96324417     0.07570
C902        C  0.84284036  0.47729474  0.98479282    -0.02550
Br903      Br  0.79640795  0.48635376  0.96073058    -0.01100
Br904      Br  0.79839986  0.48510311  0.05246315    -0.01170
Br905      Br  0.95511437  0.47507668  0.96011264    -0.01130
Br906      Br  0.95830388  0.47036879  0.04733682    -0.01110
C907        C  0.13089656  0.55660616  0.16900190    -0.02240
C908        C  0.10966203  0.53835427  0.14161056     0.07440
C909        C  0.07893223  0.55659745  0.12646920    -0.02350
C910        C  0.07319622  0.59392200  0.13390222    -0.02360
C911        C  0.09031678  0.61080575  0.16540765     0.07570
C912        C  0.11988926  0.59155080  0.18258117    -0.02550
Br913      Br  0.14679767  0.61245659  0.22352927    -0.01100
Br914      Br  0.17222123  0.53147876  0.19137876    -0.01170
Br915      Br  0.04771679  0.62170298  0.09467092    -0.01130
Br916      Br  0.04469844  0.53137438  0.09410803    -0.01110
C917        C  0.16524013  0.60556439  0.07757062    -0.02240
C918        C  0.20349676  0.61154994  0.07647795     0.07440
C919        C  0.22664946  0.58192751  0.08710713    -0.02350
C920        C  0.21006891  0.54726434  0.09686301    -0.02360
C921        C  0.17188555  0.54047109  0.08881393     0.07570
C922        C  0.15119637  0.57015904  0.07571377    -0.02550
Br923      Br  0.11061291  0.56249014  0.04384460    -0.01100
Br924      Br  0.13274728  0.64637359  0.08614389    -0.01170
Br925      Br  0.23899371  0.51060416  0.12227532    -0.01130
Br926      Br  0.27957419  0.58857191  0.08920883    -0.01110
C927        C  0.10171969  0.36596558  0.20284683    -0.02240
C928        C  0.10338082  0.33230776  0.18417427     0.07440
C929        C  0.11946284  0.33151824  0.14899125    -0.02350
C930        C  0.12071814  0.36349840  0.12756474    -0.02360
C931        C  0.11963073  0.39878783  0.14500097     0.07570
C932        C  0.11423347  0.39835133  0.18440419    -0.02550
Br933      Br  0.12992513  0.43862001  0.21463568    -0.01100
Br934      Br  0.08339993  0.36750689  0.25313857    -0.01170
Br935      Br  0.11463868  0.35372526  0.07574840    -0.01130
Br936      Br  0.13821850  0.28563355  0.12988169    -0.01110
C937        C  0.21870304  0.35265300  0.10701021    -0.02240
C938        C  0.22269024  0.34086329  0.07003548     0.07440
C939        C  0.21585771  0.36649134  0.04232533    -0.02350
C940        C  0.19015666  0.39426079  0.04893419    -0.02360
C941        C  0.18244202  0.40653035  0.08576696     0.07570
C942        C  0.20237415  0.38768753  0.11432194    -0.02550
Br943      Br  0.20909180  0.40966716  0.16211698    -0.01100
Br944      Br  0.23670447  0.32197623  0.14645028    -0.01170
Br945      Br  0.15649806  0.39686731  0.00906589    -0.01130
Br946      Br  0.23729925  0.35972013  0.99382132    -0.01110
C947        C  0.04554125  0.49129038  0.17513976    -0.02240
C948        C  0.06311711  0.46653070  0.14894245     0.07440
C949        C  0.03698421  0.44185131  0.13359656    -0.02350
C950        C  0.00082918  0.43888430  0.14860860    -0.02360
C951        C  0.98088917  0.47131139  0.15604047     0.07570
C952        C  0.00501805  0.49591341  0.17621327    -0.02550
Br953      Br  0.98581349  0.52427266  0.21640616    -0.01100
Br954      Br  0.07350479  0.51082563  0.21603003    -0.01170
Br955      Br  0.00468681  0.40919524  0.19317832    -0.01130
Br956      Br  0.04829597  0.40934053  0.09495584    -0.01110
C957        C  0.09824207  0.57647210  0.86333708    -0.02240
C958        C  0.11194694  0.54668552  0.84258872     0.07440
C959        C  0.12908558  0.55536733  0.80776666    -0.02350
C960        C  0.12425907  0.59136010  0.79242754    -0.02360
C961        C  0.11133056  0.61967149  0.81599447     0.07570
C962        C  0.10941084  0.61156345  0.85371859    -0.02550
Br963      Br  0.10944174  0.64978827  0.89017495    -0.01100
Br964      Br  0.04808425  0.57684501  0.88015444    -0.01170
Br965      Br  0.13471277  0.60096917  0.74092291    -0.01130
Br966      Br  0.15419685  0.51780101  0.77963979    -0.01110
C967        C  0.19376180  0.55781862  0.89015158    -0.02240
C968        C  0.16082951  0.54324254  0.90627277     0.07440
C969        C  0.14264718  0.56344759  0.93396722    -0.02350
C970        C  0.15633486  0.59780542  0.94530931    -0.02360
C971        C  0.19020640  0.61290394  0.92949971     0.07570
C972        C  0.20882140  0.59185468  0.90204730    -0.02550
Br973      Br  0.25468711  0.60882604  0.87951226    -0.01100
Br974      Br  0.21850887  0.53103578  0.85127920    -0.01170
Br975      Br  0.12299014  0.62443997  0.97905834    -0.01130
Br976      Br  0.09522035  0.54668594  0.95286428    -0.01110
C977        C  0.14771124  0.38876541  0.81836144    -0.02240
C978        C  0.11626142  0.40852488  0.83244678     0.07440
C979        C  0.08219445  0.39065145  0.82723977    -0.02350
C980        C  0.07978916  0.36141733  0.80306928    -0.02360
C981        C  0.10758814  0.33594660  0.80641471     0.07570
C982        C  0.14391279  0.35031859  0.81024639    -0.02550
Br983      Br  0.18635327  0.31934810  0.80350545    -0.01100
Br984      Br  0.19115482  0.41465649  0.80201118    -0.01170
Br985      Br  0.06174582  0.36823183  0.75361509    -0.01130
Br986      Br  0.05677231  0.37542569  0.86989723    -0.01110
C987        C  0.20168056  0.39960113  0.89533298    -0.02240
C988        C  0.16261357  0.40512438  0.90090030     0.07440
C989        C  0.14140322  0.37333874  0.91022826    -0.02350
C990        C  0.15678917  0.33863815  0.90651447    -0.02360
C991        C  0.19508971  0.33383942  0.90879052     0.07570
C992        C  0.21802804  0.36447977  0.90144766    -0.02550
Br993      Br  0.27115417  0.35808615  0.89835317    -0.01100
Br994      Br  0.23376530  0.43862789  0.87880136    -0.01170
Br995      Br  0.12465551  0.29720827  0.89997422    -0.01130
Br996      Br  0.09997873  0.37241026  0.94406965    -0.01110
C997        C  0.12605656  0.46965280  0.97556869    -0.02240
C998        C  0.15769534  0.47411981  0.95263849     0.07440
C999        C  0.19160310  0.48204472  0.97172173    -0.02350
C1000       C  0.19366323  0.48006477  0.01154298    -0.02360
C1001       C  0.16111155  0.47661074  0.03387133     0.07570
C1002       C  0.12721586  0.47417536  0.01445273    -0.02550
Br1003     Br  0.08137343  0.47097898  0.04048780    -0.01100
Br1004     Br  0.07978199  0.45548612  0.95461704    -0.01170
Br1005     Br  0.24152633  0.47826603  0.03459288    -0.01130
Br1006     Br  0.23543139  0.49815122  0.94583337    -0.01110
C1007       C  0.99619893  0.50728190  0.81754418    -0.02240
C1008       C  0.97780607  0.48733472  0.84816661     0.07440
C1009       C  0.00419790  0.46807101  0.86821959    -0.02350
C1010       C  0.03243670  0.45186806  0.84680687    -0.02360
C1011       C  0.05814733  0.47754857  0.83341587     0.07570
C1012       C  0.03736334  0.50569667  0.81342912    -0.02550
Br1013     Br  0.05906293  0.52645280  0.76928432    -0.01100
Br1014     Br  0.96988671  0.52013644  0.77370748    -0.01170
Br1015     Br  0.01053487  0.42445066  0.80551288    -0.01130
Br1016     Br  0.02109210  0.49706115  0.90783744    -0.01110
C1017       C  0.59777076  0.88699548  0.81613647    -0.02240
C1018       C  0.59032841  0.88612961  0.85494650     0.07440
C1019       C  0.61854319  0.89747158  0.87908671    -0.02350
C1020       C  0.65436963  0.90430152  0.86581485    -0.02360
C1021       C  0.66158639  0.90738449  0.82728355     0.07570
C1022       C  0.63271110  0.89919895  0.80235743    -0.02550
Br1023     Br  0.64040610  0.90470991  0.74957459    -0.01100
Br1024     Br  0.56235921  0.86783143  0.78147247    -0.01170
Br1025     Br  0.69382892  0.90438706  0.90190636    -0.01130
Br1026     Br  0.60967744  0.90550847  0.93060232    -0.01110
C1027       C  0.62601603  0.76323445  0.91917601    -0.02240
C1028       C  0.65680701  0.78678755  0.91045369     0.07440
C1029       C  0.65275646  0.80880872  0.87865335    -0.02350
C1030       C  0.61686139  0.81387753  0.86388027    -0.02360
C1031       C  0.58539335  0.80694918  0.88668028     0.07570
C1032       C  0.58945357  0.77308269  0.90642269    -0.02550
Br1033     Br  0.54744622  0.74216197  0.91756808    -0.01100
Br1034     Br  0.63247844  0.72278547  0.95308757    -0.01170
Br1035     Br  0.61219558  0.79798926  0.81350803    -0.01130
Br1036     Br  0.69624157  0.82065677  0.84926752    -0.01110
C1037       C  0.43837713  0.86887561  0.81959523    -0.02240
C1038       C  0.45214418  0.88761867  0.85125242     0.07440
C1039       C  0.42784533  0.91254668  0.86806348    -0.02350
C1040       C  0.38997832  0.91129549  0.86153125    -0.02360
C1041       C  0.37643424  0.89700226  0.82757613     0.07570
C1042       C  0.40165541  0.87566478  0.80619091    -0.02550
Br1043     Br  0.38652889  0.85458748  0.75975832    -0.01100
Br1044     Br  0.47066964  0.83662931  0.79249291    -0.01170
Br1045     Br  0.35905955  0.92899875  0.90225259    -0.01130
Br1046     Br  0.44419298  0.95661179  0.89030815    -0.01110
C1047       C  0.43320989  0.79823560  0.88887186    -0.02240
C1048       C  0.44726959  0.83009385  0.90621621     0.07440
C1049       C  0.42371705  0.84986686  0.93023599    -0.02350
C1050       C  0.38750100  0.83745825  0.93834860    -0.02360
C1051       C  0.37291598  0.80548358  0.92081053     0.07570
C1052       C  0.39605764  0.78649762  0.89533331    -0.02550
Br1053     Br  0.37717829  0.74527179  0.86774035    -0.01100
Br1054     Br  0.46599834  0.76853059  0.85911642    -0.01170
Br1055     Br  0.35982513  0.86506439  0.97547962    -0.01130
Br1056     Br  0.44166672  0.89340507  0.95436900    -0.01110
C1057       C  0.63820632  0.87158227  0.18523174    -0.02240
C1058       C  0.66316553  0.89300152  0.16353286     0.07440
C1059       C  0.65161862  0.90445307  0.12778770    -0.02350
C1060       C  0.61435207  0.90412918  0.11864397    -0.02360
C1061       C  0.58947766  0.88189844  0.13876120     0.07570
C1062       C  0.60198611  0.86436626  0.17170435    -0.02550
Br1063     Br  0.56751175  0.83685886  0.20212305    -0.01100
Br1064     Br  0.65192236  0.85350167  0.23362754    -0.01170
Br1065     Br  0.59799389  0.93972859  0.08270396    -0.01130
Br1066     Br  0.68588712  0.91939498  0.08908021    -0.01110
C1067       C  0.64137011  0.78967113  0.09337920    -0.02240
C1068       C  0.66174494  0.80814516  0.06515098     0.07440
C1069       C  0.64438191  0.83843304  0.04617081    -0.02350
C1070       C  0.60716215  0.84791475  0.05402236    -0.02360
C1071       C  0.58756251  0.82939562  0.08216342     0.07570
C1072       C  0.60450574  0.80018100  0.10164487    -0.02550
Br1073     Br  0.57529386  0.77121680  0.13612555    -0.01100
Br1074     Br  0.66405268  0.75158069  0.12297309    -0.01170
Br1075     Br  0.58030456  0.88404384  0.02402908    -0.01130
Br1076     Br  0.66963156  0.86848306  0.00881843    -0.01110
C1077       C  0.40402891  0.88855326  0.19234249    -0.02240
C1078       C  0.37972308  0.90654584  0.16738260     0.07440
C1079       C  0.39251686  0.91366606  0.13012010    -0.02350
C1080       C  0.42864042  0.90468707  0.11931780    -0.02360
C1081       C  0.45119677  0.88463727  0.14325769     0.07570
C1082       C  0.43957555  0.87737004  0.18004883    -0.02550
Br1083     Br  0.47312929  0.85341968  0.21396872    -0.01100
Br1084     Br  0.39043748  0.87987579  0.24362104    -0.01170
Br1085     Br  0.44918792  0.92270804  0.07257911    -0.01130
Br1086     Br  0.36165294  0.93301960  0.09069939    -0.01110
C1087       C  0.38439270  0.81477932  0.10328257    -0.02240
C1088       C  0.38283725  0.78924148  0.07432796     0.07440
C1089       C  0.41448861  0.76689320  0.06807840    -0.02350
C1090       C  0.44928396  0.77758409  0.08344744    -0.02360
C1091       C  0.45129364  0.81047046  0.10443844     0.07570
C1092       C  0.41759721  0.81826687  0.12300625    -0.02550
Br1093     Br  0.41285015  0.79494394  0.17080407    -0.01100
Br1094     Br  0.33915551  0.83497292  0.12348289    -0.01170
Br1095     Br  0.48982933  0.74370297  0.08364293    -0.01130
Br1096     Br  0.40991386  0.72247841  0.03978133    -0.01110
C1097       C  0.54489284  0.80377472  0.01805584    -0.02240
C1098       C  0.51393655  0.81819133  0.03814397     0.07440
C1099       C  0.48310630  0.82451279  0.01417235    -0.02350
C1100       C  0.48494701  0.81413772  0.97617642    -0.02360
C1101       C  0.51881225  0.81794523  0.95598341     0.07570
C1102       C  0.54994814  0.81241256  0.97978488    -0.02550
Br1103     Br  0.60005104  0.82309443  0.96808190    -0.01100
Br1104     Br  0.56950352  0.75957090  0.03356947    -0.01170
Br1105     Br  0.45863551  0.76907637  0.96807756    -0.01130
Br1106     Br  0.43702310  0.84518391  0.02903688    -0.01110
C1107       C  0.64102247  0.07354955  0.80819286    -0.02240
C1108       C  0.66891993  0.06024497  0.83207443     0.07440
C1109       C  0.65923789  0.05508306  0.86981995    -0.02350
C1110       C  0.62216981  0.05217787  0.88057181    -0.02360
C1111       C  0.59425350  0.06839464  0.85892863     0.07570
C1112       C  0.60482716  0.08087694  0.82265357    -0.02550
Br1113     Br  0.57072205  0.10716106  0.79171644    -0.01100
Br1114     Br  0.65158937  0.08145851  0.75621340    -0.01170
Br1115     Br  0.61208280  0.01703852  0.91902323    -0.01130
Br1116     Br  0.69588127  0.05320143  0.90855015    -0.01110
C1117       C  0.60718745  0.11847315  0.94341569    -0.02240
C1118       C  0.58839070  0.12753410  0.91110201     0.07440
C1119       C  0.60512114  0.15317331  0.88601790    -0.02350
C1120       C  0.64271980  0.16393563  0.89093221    -0.02360
C1121       C  0.66023581  0.15479433  0.92450901     0.07570
C1122       C  0.63907727  0.13742444  0.95204036    -0.02550
Br1123     Br  0.64198858  0.15644959  0.00053146    -0.01100
Br1124     Br  0.58941491  0.08261278  0.97769447    -0.01170
Br1125     Br  0.66894127  0.19099945  0.85292216    -0.01130
Br1126     Br  0.57553276  0.17766439  0.84943875    -0.01110
C1127       C  0.39125144  0.04054113  0.86923095    -0.02240
C1128       C  0.38397443  0.03925591  0.83065779     0.07440
C1129       C  0.41316589  0.04664014  0.80541439    -0.02350
C1130       C  0.44828094  0.05753462  0.81876466    -0.02360
C1131       C  0.45566180  0.05742010  0.85746998     0.07570
C1132       C  0.42728163  0.04609552  0.88198952    -0.02550
Br1133     Br  0.43670189  0.03710660  0.93348719    -0.01100
Br1134     Br  0.35196182  0.03968317  0.90622414    -0.01170
Br1135     Br  0.48294514  0.07770966  0.78344344    -0.01130
Br1136     Br  0.40553253  0.04237817  0.75259762    -0.01110
C1137       C  0.42395099  0.12857756  0.86637533    -0.02240
C1138       C  0.45313625  0.13440018  0.89170676     0.07440
C1139       C  0.44969588  0.16856805  0.90988269    -0.02350
C1140       C  0.41359658  0.18152120  0.91883894    -0.02360
C1141       C  0.38241202  0.16124661  0.90700335     0.07570
C1142       C  0.38749341  0.13622898  0.87810113    -0.02550
Br1143     Br  0.34575276  0.12351557  0.84754009    -0.01100
Br1144     Br  0.43362027  0.14635579  0.81703633    -0.01170
Br1145     Br  0.40656054  0.22859023  0.94161224    -0.01130
Br1146     Br  0.48857055  0.20388857  0.90417333    -0.01110
C1147       C  0.52705064  0.99361055  0.89995551    -0.02240
C1148       C  0.52743221  0.01463021  0.86663528     0.07440
C1149       C  0.52894235  0.99454997  0.83299810    -0.02350
C1150       C  0.52265570  0.95609144  0.83259739    -0.02360
C1151       C  0.52499077  0.93485068  0.86552301     0.07570
C1152       C  0.52833523  0.95453213  0.89936985    -0.02550
Br1153     Br  0.52521838  0.92880103  0.94620333    -0.01100
Br1154     Br  0.52439746  0.01788761  0.94747768    -0.01170
Br1155     Br  0.50344823  0.93569062  0.78762959    -0.01130
Br1156     Br  0.54747837  0.01567149  0.78776078    -0.01110
C1157       C  0.65343878  0.08644325  0.17039579    -0.02240
C1158       C  0.65733280  0.05356898  0.19035665     0.07440
C1159       C  0.62635233  0.04113235  0.21127937    -0.02350
C1160       C  0.59020499  0.05411757  0.20175650    -0.02360
C1161       C  0.58629089  0.07935654  0.17139004     0.07570
C1162       C  0.61790138  0.10257239  0.16869215    -0.02550
Br1163     Br  0.61594057  0.14377688  0.20179961    -0.01100
Br1164     Br  0.69749086  0.11540493  0.16077207    -0.01170
Br1165     Br  0.54967172  0.03719789  0.23066322    -0.01130
Br1166     Br  0.63352358  0.00517758  0.25011315    -0.01110
C1167       C  0.64041713  0.16475001  0.09940864    -0.02240
C1168       C  0.66522330  0.13990777  0.08158247     0.07440
C1169       C  0.65194399  0.10357034  0.07420135    -0.02350
C1170       C  0.61413251  0.09477767  0.07850622    -0.02360
C1171       C  0.59001485  0.11914612  0.09626784     0.07570
C1172       C  0.60356689  0.15368030  0.10808060    -0.02550
Br1173     Br  0.57124642  0.18590624  0.13638594    -0.01100
Br1174     Br  0.65545456  0.21385941  0.11292249    -0.01170
Br1175     Br  0.59466694  0.04883793  0.06015953    -0.01130
Br1176     Br  0.68464604  0.06362957  0.06087029    -0.01110
C1177       C  0.40897238  0.03077419  0.19177881    -0.02240
C1178       C  0.38192045  0.05842062  0.19021649     0.07440
C1179       C  0.39530164  0.09464617  0.19681756    -0.02350
C1180       C  0.43316357  0.10317634  0.18634859    -0.02360
C1181       C  0.45540421  0.07446253  0.17229362     0.07570
C1182       C  0.44679007  0.04131732  0.19137284    -0.02550
Br1183     Br  0.46258777  0.04027367  0.24224354    -0.01100
Br1184     Br  0.39394769  0.98567208  0.21587431    -0.01170
Br1185     Br  0.45659296  0.14939849  0.19754360    -0.01130
Br1186     Br  0.36482289  0.12922104  0.22349305    -0.01110
C1187       C  0.42231447  0.17271207  0.05823169    -0.02240
C1188       C  0.39179370  0.14788241  0.05517900     0.07440
C1189       C  0.39283935  0.11544580  0.07726148    -0.02350
C1190       C  0.41487712  0.11734365  0.10842287    -0.02360
C1191       C  0.45141533  0.12921198  0.10151829     0.07570
C1192       C  0.45295135  0.16279159  0.08115365    -0.02550
Br1193     Br  0.48458365  0.20081290  0.09910566    -0.01100
Br1194     Br  0.42062149  0.22047081  0.03550792    -0.01170
Br1195     Br  0.38587773  0.15332187  0.13696892    -0.01130
Br1196     Br  0.35368778  0.07969225  0.07968456    -0.01110
C1197       C  0.55460722  0.99169298  0.14984587    -0.02240
C1198       C  0.52158908  0.01396223  0.14611514     0.07440
C1199       C  0.48881580  0.99161879  0.14249875    -0.02350
C1200       C  0.48864179  0.95410055  0.15369875    -0.02360
C1201       C  0.52045618  0.93265385  0.14799240     0.07570
C1202       C  0.55274711  0.95312238  0.15657761    -0.02550
Br1203     Br  0.57732170  0.94047641  0.20191407    -0.01100
Br1204     Br  0.60440923  0.00590963  0.13712237    -0.01170
Br1205     Br  0.47698852  0.95083847  0.20549762    -0.01130
Br1206     Br  0.44602205  0.00589697  0.11450251    -0.01110
C1207       C  0.49627621  0.09627165  0.02240010    -0.02240
C1208       C  0.51833612  0.11944680  0.04520355     0.07440
C1209       C  0.53577466  0.14899905  0.02391476    -0.02350
C1210       C  0.53456524  0.15097619  0.98350627    -0.02360
C1211       C  0.51304077  0.12573036  0.96204567     0.07570
C1212       C  0.48855220  0.10436068  0.98453179    -0.02550
Br1213     Br  0.43642731  0.11266360  0.97845905    -0.01100
Br1214     Br  0.47437024  0.05208046  0.04081414    -0.01170
Br1215     Br  0.55853760  0.19229467  0.95891223    -0.01130
Br1216     Br  0.55892812  0.19033224  0.04662606    -0.01110
C1217       C  0.95574218  0.85767517  0.58715481    -0.02240
C1218       C  0.93308470  0.83017091  0.55974706     0.07440
C1219       C  0.90668650  0.79757664  0.57834185    -0.02350
C1220       C  0.90585160  0.79195397  0.62340273    -0.02360
C1221       C  0.93132702  0.81822626  0.64980919     0.07570
C1222       C  0.95391703  0.85215823  0.63107925    -0.02550
Br1223     Br  0.97283927  0.89173258  0.66103547    -0.01100
Br1224     Br  0.97772941  0.90256704  0.57069377    -0.01170
Br1225     Br  0.88037802  0.74994500  0.64385114    -0.01130
Br1226     Br  0.87182630  0.77065745  0.54945535    -0.01110
C1227       C  0.84100137  0.88730994  0.57457971    -0.02240
C1228       C  0.87717403  0.87353264  0.57184865     0.07440
C1229       C  0.89266971  0.85419806  0.60635485    -0.02350
C1230       C  0.87162696  0.86478735  0.64052216    -0.02360
C1231       C  0.84632999  0.89445824  0.64043556     0.07570
C1232       C  0.82902847  0.90376008  0.60729078    -0.02550
Br1233     Br  0.78548806  0.93413443  0.60700740    -0.01100
Br1234     Br  0.80406946  0.85994526  0.54821686    -0.01170
Br1235     Br  0.86445746  0.83714185  0.68712599    -0.01130
Br1236     Br  0.97266608  0.79100153  0.60092773    -0.01110
C1237       C  0.87002592  0.92122738  0.36754151    -0.02240
C1238       C  0.83825138  0.90209661  0.35533621     0.07440
C1239       C  0.82068849  0.87721466  0.38061529    -0.02350
C1240       C  0.83583564  0.87101923  0.41665556    -0.02360
C1241       C  0.86753344  0.89071601  0.42863658     0.07570
C1242       C  0.88278543  0.91655651  0.40371688    -0.02550
Br1243     Br  0.92659815  0.94111524  0.41436977    -0.01100
Br1244     Br  0.90121146  0.95111841  0.33453863    -0.01170
Br1245     Br  0.81536215  0.83318748  0.44840462    -0.01130
Br1246     Br  0.77892632  0.84812890  0.36484658    -0.01110
C1247       C  0.92047722  0.84490346  0.38457398    -0.02240
C1248       C  0.92262373  0.82899271  0.42121936     0.07440
C1249       C  0.92414022  0.78984189  0.42224219    -0.02350
C1250       C  0.93508337  0.77067312  0.39017302    -0.02360
C1251       C  0.93117338  0.78848830  0.35589789     0.07570
C1252       C  0.91254910  0.82175512  0.35518739    -0.02550
Br1253     Br  0.89394523  0.84031809  0.30868696    -0.01100
Br1254     Br  0.95832841  0.87611433  0.36306721    -0.01170
Br1255     Br  0.95352741  0.72127195  0.39331181    -0.01130
Br1256     Br  0.89918400  0.76214403  0.46008143    -0.01110
C1257       C  0.91328098  0.16921982  0.61822964    -0.02240
C1258       C  0.94828705  0.16306411  0.63450942     0.07440
C1259       C  0.97337001  0.14171549  0.61443650    -0.02350
C1260       C  0.96109178  0.11705859  0.58832099    -0.02360
C1261       C  0.92790563  0.12345460  0.56941666     0.07570
C1262       C  0.90524628  0.15268906  0.58321266    -0.02550
Br1263     Br  0.86704979  0.17365290  0.55315076    -0.01100
Br1264     Br  0.87743725  0.19991232  0.64264312    -0.01170
Br1265     Br  0.98470048  0.07085802  0.59063104    -0.01130
Br1266     Br  0.02528649  0.14855250  0.61953701    -0.01110
C1267       C  0.89258219  0.04379784  0.59231860    -0.02240
C1268       C  0.87108067  0.06534090  0.56877370     0.07440
C1269       C  0.83782179  0.08112751  0.58244851    -0.02350
C1270       C  0.82689717  0.07454235  0.61970577    -0.02360
C1271       C  0.85184368  0.05650706  0.64396455     0.07570
C1272       C  0.88689231  0.04558429  0.63004971    -0.02550
Br1273     Br  0.92850185  0.03288862  0.66124344    -0.01100
Br1274     Br  0.92305983  0.00468067  0.57412669    -0.01170
Br1275     Br  0.77803014  0.08927267  0.63598193    -0.01130
Br1276     Br  0.80468366  0.10645523  0.54905748    -0.01110
C1277       C  0.92322320  0.15641014  0.42126184    -0.02240
C1278       C  0.93613810  0.12133885  0.43210360     0.07440
C1279       C  0.95914470  0.10246750  0.40690089    -0.02350
C1280       C  0.96079674  0.11251664  0.36943229    -0.02360
C1281       C  0.94527427  0.14637478  0.35710864     0.07570
C1282       C  0.92744511  0.16890583  0.38401334    -0.02550
Br1283     Br  0.90615924  0.21574861  0.37052224    -0.01100
Br1284     Br  0.89932784  0.18741457  0.45752802    -0.01170
Br1285     Br  0.98729864  0.07846176  0.33745495    -0.01130
Br1286     Br  0.99846000  0.07130169  0.42316271    -0.01110
C1287       C  0.85671118  0.08394051  0.36399335    -0.02240
C1288       C  0.84022358  0.04895393  0.36117283     0.07440
C1289       C  0.82848166  0.03110412  0.39400687    -0.02350
C1290       C  0.83578544  0.04745752  0.42851470    -0.02360
C1291       C  0.86286404  0.07554294  0.43076335     0.07570
C1292       C  0.86303322  0.09905940  0.39941179    -0.02550
Br1293     Br  0.83665322  0.14428266  0.40611927    -0.01100
Br1294     Br  0.86395535  0.11363093  0.32011714    -0.01170
Br1295     Br  0.79241318  0.05386128  0.45871975    -0.01130
Br1296     Br  0.79771697  0.98777775  0.39207553    -0.01110
C1297       C  0.90179197  0.99806274  0.48396490    -0.02240
C1298       C  0.87173281  0.01800403  0.49796350     0.07440
C1299       C  0.84194991  0.99501024  0.51202180    -0.02350
C1300       C  0.84270725  0.95576452  0.50640273    -0.02360
C1301       C  0.87706731  0.93694371  0.50169020     0.07570
C1302       C  0.90721522  0.96092454  0.49406504    -0.02550
Br1303     Br  0.95707427  0.94637602  0.49914813    -0.01100
Br1304     Br  0.93140145  0.01848858  0.44475408    -0.01170
Br1305     Br  0.79667553  0.93203760  0.49502730    -0.01130
Br1306     Br  0.80007618  0.01294387  0.53955963    -0.01110
C1307       C  0.22226571  0.05593110  0.56898072    -0.02240
C1308       C  0.19602257  0.08467713  0.56507157     0.07440
C1309       C  0.19707010  0.10942678  0.59518096    -0.02350
C1310       C  0.20237442  0.09572069  0.63157010    -0.02360
C1311       C  0.21545151  0.05969233  0.63647735     0.07570
C1312       C  0.22982930  0.04175641  0.60490849    -0.02550
Br1313     Br  0.25915825  0.99818655  0.61067159    -0.01100
Br1314     Br  0.25791195  0.04696777  0.53072595    -0.01170
Br1315     Br  0.19893902  0.12800999  0.67359884    -0.01130
Br1316     Br  0.22115139  0.15554509  0.58532014    -0.01110
C1317       C  0.12276046  0.17477642  0.61864664    -0.02240
C1318       C  0.11122217  0.14921302  0.64646850     0.07440
C1319       C  0.10862024  0.11192548  0.63691167    -0.02350
C1320       C  0.10757512  0.10189053  0.60010846    -0.02360
C1321       C  0.12195236  0.12541232  0.57281990     0.07570
C1322       C  0.13046642  0.16221212  0.58221328    -0.02550
Br1323     Br  0.15050880  0.19557935  0.54468474    -0.01100
Br1324     Br  0.12694689  0.22645272  0.62892996    -0.01170
Br1325     Br  0.07575483  0.06168984  0.58845302    -0.01130
Br1326     Br  0.10644057  0.07321975  0.67312184    -0.01110
C1327       C  0.13036458  0.15238223  0.37207249    -0.02240
C1328       C  0.09166950  0.15510281  0.36628940     0.07440
C1329       C  0.06840223  0.15817558  0.39790035    -0.02350
C1330       C  0.08411278  0.15565468  0.43343460    -0.02360
C1331       C  0.11796768  0.13699319  0.43682948     0.07570
C1332       C  0.14356899  0.14658288  0.40843656    -0.02550
Br1333     Br  0.18761165  0.17258944  0.42230340    -0.01100
Br1334     Br  0.16523352  0.15815895  0.33162969    -0.01170
Br1335     Br  0.08619715  0.20381332  0.45459632    -0.01130
Br1336     Br  0.02071342  0.18105445  0.39351753    -0.01110
C1337       C  0.15245872  0.05930769  0.36425435    -0.02240
C1338       C  0.19005581  0.06049659  0.35359977     0.07440
C1339       C  0.21603847  0.07416391  0.37953944    -0.02350
C1340       C  0.20433584  0.08249643  0.41632078    -0.02360
C1341       C  0.16802362  0.07255486  0.42876333     0.07570
C1342       C  0.14207618  0.06158749  0.40162064    -0.02550
Br1343     Br  0.09096856  0.05226496  0.41307963    -0.01100
Br1344     Br  0.11423535  0.06080356  0.32703119    -0.01170
Br1345     Br  0.23945710  0.10434194  0.45056952    -0.01130
Br1346     Br  0.26757540  0.08087649  0.36609791    -0.01110
C1347       C  0.00796118  0.08046977  0.50525226    -0.02240
C1348       C  0.98421916  0.11171904  0.50405624     0.07440
C1349       C  0.00245040  0.14568103  0.51039001    -0.02350
C1350       C  0.04212745  0.14788816  0.51544122    -0.02360
C1351       C  0.06619339  0.11710727  0.50814543     0.07570
C1352       C  0.04743508  0.08316394  0.50400507    -0.02550
Br1353     Br  0.07560677  0.03816925  0.50041688    -0.01100
Br1354     Br  0.98782923  0.03226575  0.51028556    -0.01170
Br1355     Br  0.05953743  0.19165290  0.53914664    -0.01130
Br1356     Br  0.97279547  0.18922720  0.51595260    -0.01110
C1357       C  0.13977715  0.79375942  0.62157794    -0.02240
C1358       C  0.10290148  0.78895578  0.63400358     0.07440
C1359       C  0.07567090  0.78658753  0.60750956    -0.02350
C1360       C  0.07983838  0.80719922  0.57531997    -0.02360
C1361       C  0.11560906  0.81689154  0.56232595     0.07570
C1362       C  0.14586477  0.80336074  0.58369753    -0.02550
Br1363     Br  0.19295434  0.79362430  0.56087170    -0.01100
Br1364     Br  0.18053987  0.78685739  0.65497994    -0.01170
Br1365     Br  0.03867019  0.83723703  0.56674246    -0.01130
Br1366     Br  0.04732393  0.74190202  0.60710721    -0.01110
C1367       C  0.14141416  0.88667594  0.60499975    -0.02240
C1368       C  0.16241835  0.88469184  0.57119920     0.07440
C1369       C  0.20201313  0.88661732  0.57475607    -0.02350
C1370       C  0.21865248  0.89573493  0.60908513    -0.02360
C1371       C  0.19645908  0.89831159  0.64104392     0.07570
C1372       C  0.15929382  0.88835809  0.63905671    -0.02550
Br1373     Br  0.13383482  0.87400981  0.68407680    -0.01100
Br1374     Br  0.08884297  0.89162159  0.60991371    -0.01170
Br1375     Br  0.27171685  0.90120400  0.61329880    -0.01130
Br1376     Br  0.23466711  0.87201013  0.53529756    -0.01110
C1377       C  0.10813080  0.83479318  0.35804102    -0.02240
C1378       C  0.10575234  0.79669122  0.35320592     0.07440
C1379       C  0.11477010  0.77441979  0.38418169    -0.02350
C1380       C  0.12440094  0.79124409  0.41870999    -0.02360
C1381       C  0.11779622  0.82953521  0.42463042     0.07570
C1382       C  0.10621959  0.84988248  0.39332348    -0.02550
Br1383     Br  0.07562563  0.89235495  0.39607268    -0.01100
Br1384     Br  0.11351461  0.86731677  0.31633260    -0.01170
Br1385     Br  0.14807082  0.76202536  0.45638540    -0.01130
Br1386     Br  0.11388326  0.72182649  0.37970420    -0.01110
C1387       C  0.15483505  0.92602255  0.41231966    -0.02240
C1388       C  0.16729035  0.89427214  0.43099923     0.07440
C1389       C  0.19526650  0.87252195  0.41395642    -0.02350
C1390       C  0.20912912  0.88135624  0.37814338    -0.02360
C1391       C  0.19341241  0.91060743  0.35782971     0.07570
C1392       C  0.16500202  0.93195369  0.37512374    -0.02550
Br1393     Br  0.13401328  0.96597758  0.34804476    -0.01100
Br1394     Br  0.12111762  0.96085330  0.43518016    -0.01170
Br1395     Br  0.24660076  0.85062278  0.35579431    -0.01130
Br1396     Br  0.21654329  0.83186905  0.44095376    -0.01110
C1397       C  0.15389269  0.00107116  0.53195115    -0.02240
C1398       C  0.17424542  0.02096410  0.50427357     0.07440
C1399       C  0.19665246  0.99676532  0.48153234    -0.02350
C1400       C  0.19507421  0.95720064  0.48569557    -0.02360
C1401       C  0.16517325  0.93945100  0.50537252     0.07570
C1402       C  0.14394401  0.96406351  0.52746309    -0.02550
Br1403     Br  0.09704085  0.95359139  0.54983653    -0.01100
Br1404     Br  0.14913147  0.01519605  0.58294430    -0.01170
Br1405     Br  0.23655679  0.92927475  0.46653568    -0.01130
Br1406     Br  0.23477185  0.01355969  0.44812556    -0.01110
C1407       C  0.00504408  0.85910754  0.47488003    -0.02240
C1408       C  0.98162140  0.83013871  0.48575417     0.07440
C1409       C  0.00126713  0.79707199  0.49536369    -0.02350
C1410       C  0.04178127  0.79556780  0.49379403    -0.02360
C1411       C  0.06336955  0.82858589  0.48907710     0.07570
C1412       C  0.04279270  0.86017887  0.48163817    -0.02550
Br1413     Br  0.06313689  0.90812975  0.48597360    -0.01100
Br1414     Br  0.99199634  0.89345467  0.43960107    -0.01170
Br1415     Br  0.06656592  0.74995661  0.50370941    -0.01130
Br1416     Br  0.97467096  0.75401862  0.51131164    -0.01110
loop_ 
_geom_bond_atom_site_label_1 
_geom_bond_atom_site_label_2 
_geom_bond_distance 
_geom_bond_site_symmetry_2 
_ccdc_geom_bond_type 
C1            C2   1.447       .  A
C1            C6   1.459       .  A
C1         C1361   1.518       .  S
C2            C3   1.425       .  A
C2         C1411   1.543       .  S
C3            C4   1.454       .  A
C3         C1381   1.536       .  S
C4            C5   1.455       .  A
C4         C1388   1.500       .  S
C5            C6   1.451       .  A
C5         C1401   1.573       .  S
C6         C1368   1.533       .  S
C7            C8   1.468       .  A
C7           C12   1.464       .  A
C7         C1341   1.506       .  S
C8            C9   1.450       .  A
C8         C1398   1.593       .  S
C9           C10   1.469       .  A
C9         C1308   1.566       .  S
C10          C11   1.436       .  A
C10        C1321   1.478       .  S
C11          C12   1.429       .  A
C11        C1351   1.571       .  S
C12        C1331   1.540       .  S
C13          C14   1.429       .  A
C13          C18   1.439       .  A
C13        C1261   1.521       .  S
C14          C15   1.450       .  A
C14        C1348   1.566       .  S
C15          C16   1.481       .  A
C15        C1278   1.512       .  S
C16          C17   1.451       .  A
C16        C1291   1.551       .  S
C17          C18   1.423       .  A
C17        C1298   1.566       .  S
C18        C1268   1.473       .  S
C19          C20   1.438       .  A
C19          C24   1.410       .  A
C19        C1218   1.435       .  S
C20          C21   1.445       .  A
C20        C1408   1.567       .  S
C21          C22   1.458       .  A
C21        C1248   1.536       .  S
C22          C23   1.462       .  A
C22        C1241   1.523       .  S
C23          C24   1.468       .  A
C23        C1301   1.564       .  S
C24        C1228   1.584       .  S
C25          C26   1.465       .  A
C25          C30   1.488       .  A
C25        C1191   1.539       .  S
C26          C27   1.457       .  A
C26        C1208   1.610       .  S
C27          C28   1.466       .  A
C27        C1171   1.485       .  S
C28          C29   1.442       .  A
C28        C1161   1.582       .  S
C29          C30   1.455       .  A
C29        C1198   1.590       .  S
C30        C1181   1.562       .  S
C31          C32   1.449       .  A
C31          C36   1.463       .  A
C31        C1138   1.546       .  S
C32          C33   1.453       .  A
C32        C1211   1.597       .  S
C33          C34   1.441       .  A
C33        C1118   1.479       .  S
C34          C35   1.414       .  A
C34        C1111   1.521       .  S
C35          C36   1.435       .  A
C35        C1148   1.535       .  S
C36        C1131   1.498       .  S
C37          C38   1.447       .  A
C37          C42   1.474       .  A
C37        C1081   1.471       .  S
C38          C39   1.421       .  A
C38        C1201   1.589       .  S
C39          C40   1.440       .  A
C39        C1061   1.493       .  S
C40          C41   1.438       .  A
C40        C1071   1.488       .  S
C41          C42   1.447       .  A
C41        C1098   1.584       .  S
C42        C1091   1.558       .  S
C43          C44   1.417       .  A
C43          C48   1.437       .  A
C43        C1038   1.528       .  S
C44          C45   1.432       .  A
C44        C1151   1.531       .  S
C45          C46   1.468       .  A
C45        C1018   1.504       .  S
C46          C47   1.469       .  A
C46        C1031   1.577       .  S
C47          C48   1.461       .  A
C47        C1101   1.586       .  S
C48        C1048   1.506       .  S
C49          C50   1.448       .  A
C49          C54   1.428       .  A
C49         C968   1.510       .  S
C50          C51   1.445       .  A
C50         C958   1.509       .  S
C51          C52   1.474       .  A
C51        C1011   1.588       .  S
C52          C53   1.468       .  A
C52         C978   1.539       .  S
C53          C54   1.444       .  A
C53         C988   1.530       .  S
C54         C998   1.553       .  S
C55          C56   1.419       .  A
C55          C60   1.445       .  A
C55         C921   1.518       .  S
C56          C57   1.439       .  A
C56        C1001   1.542       .  S
C57          C58   1.473       .  A
C57         C941   1.544       .  S
C58          C59   1.475       .  A
C58         C931   1.537       .  S
C59          C60   1.446       .  A
C59         C948   1.589       .  S
C60         C908   1.504       .  S
C61          C62   1.475       .  A
C61          C66   1.458       .  A
C61         C858   1.527       .  S
C62          C63   1.472       .  A
C62         C951   1.612       .  S
C63          C64   1.448       .  A
C63         C878   1.507       .  S
C64          C65   1.424       .  A
C64         C891   1.530       .  S
C65          C66   1.428       .  A
C65         C898   1.535       .  S
C66         C868   1.522       .  S
C67          C68   1.439       .  A
C67          C72   1.461       .  A
C67         C818   1.506       .  S
C68          C69   1.458       .  A
C68        C1008   1.579       .  S
C69          C70   1.455       .  A
C69         C838   1.499       .  S
C70          C71   1.432       .  A
C70         C848   1.539       .  S
C71          C72   1.450       .  A
C71         C901   1.563       .  S
C72         C828   1.521       .  S
O73         Zr85   2.462       .  S
O73          C75   1.290       .  A
O74        Zr111   2.410       .  S
O74          C75   1.288       .  A
C75        C1371   1.476       .  S
O76         Zr88   2.416       .  S
O76          C78   1.287       .  A
O77        Zr112   2.457       .  S
O77          C78   1.286       .  A
C78         C290   1.488       .  S
O79         Zr88   2.396       .  S
O79          C81   1.271       .  A
O80        Zr111   2.499       .  S
O80          C81   1.294       .  A
C81         C633   1.481       .  S
O82         Zr85   2.498       .  S
O82          C84   1.294       .  A
O83        Zr112   2.363       .  S
O83          C84   1.269       .  A
C84        C1041   1.514       .  S
Zr85         O86   2.435       .  S
Zr85         O87   2.436       .  S
Zr85         O91   2.395       .  S
Zr85         O92   2.382       .  S
Zr85        O115   2.366       .  S
Zr85        O117   2.384       .  S
O86         H129   0.990       .  S
O87         H128   0.990       .  S
O87         H132   0.990       .  S
Zr88         O89   2.430       .  S
Zr88         O90   2.432       .  S
Zr88         O92   2.359       .  S
Zr88         O91   2.373       .  S
Zr88        O116   2.372       .  S
Zr88        O118   2.347       .  S
O89         H130   0.990       .  S
O89         H133   0.990       .  S
O90         H123   0.990       .  S
O91        Zr111   2.397       .  S
O92        Zr112   2.374       .  S
O92         H119   0.966       .  S
O93        Zr105   2.489       .  S
O93          C95   1.298       .  A
O94        Zr112   2.356   1_545  S
O94          C95   1.274       .  A
C95        C1128   1.483       .  S
O96        Zr108   2.384       .  S
O96          C98   1.278       .  A
O97        Zr111   2.491   1_545  S
O97          C98   1.293       .  A
C98         C143   1.495       .  S
O99        Zr108   2.417       .  S
O99         C101   1.276       .  A
O100       Zr112   2.450   1_545  S
O100        C101   1.280       .  A
C101        C470   1.477       .  S
O102       Zr105   2.470       .  S
O102        C104   1.294       .  A
O103       Zr111   2.446   1_545  S
O103        C104   1.292       .  A
C104       C1311   1.488       .  S
Zr105       O106   2.435       .  S
Zr105       O107   2.433       .  S
Zr105       O113   2.374       .  S
Zr105       O114   2.380       .  S
Zr105       O117   2.379   1_545  S
Zr105       O115   2.369   1_545  S
O106        H126   0.990       .  S
O106        H131   0.990       .  S
O107        H127   0.990       .  S
Zr108       O109   2.428       .  S
Zr108       O110   2.426       .  S
Zr108       O114   2.365       .  S
Zr108       O113   2.348       .  S
Zr108       O118   2.364   1_545  S
Zr108       O116   2.350   1_545  S
O109        H125   0.990       .  S
O110        H124   0.990       .  S
O110        H134   0.986       .  S
Zr111       O114   2.399   1_565  S
Zr111       O116   2.385       .  S
Zr111       O117   2.417       .  S
Zr112       O113   2.394   1_565  S
Zr112       O115   2.391       .  S
Zr112       O118   2.361       .  S
O113        H121   0.966       .  S
O116        H120   0.965       .  S
O117        H122   0.965       .  S
O135       Zr147   2.433       .  S
O135        C137   1.283       .  A
O136       Zr173   2.413       .  S
O136        C137   1.287       .  A
C137       C1318   1.486       .  S
O138       Zr150   2.402       .  S
O138        C140   1.284       .  A
O139       Zr174   2.475       .  S
O139        C140   1.288       .  A
C140        C473   1.501       .  S
O141       Zr150   2.376       .  S
O141        C143   1.277       .  A
O142       Zr173   2.485       .  S
O142        C143   1.291       .  A
O144       Zr147   2.419       .  S
O144        C146   1.280       .  A
O145       Zr174   2.470       .  S
O145        C146   1.299       .  A
C146        C981   1.478       .  S
Zr147       O148   2.434       .  S
Zr147       O149   2.437       .  S
Zr147       O153   2.364       .  S
Zr147       O154   2.383       .  S
Zr147       O177   2.370       .  S
Zr147       O179   2.378       .  S
O148        H191   0.990       .  S
O149        H190   0.990       .  S
O149        H194   0.990       .  S
Zr150       O151   2.418       .  S
Zr150       O152   2.435       .  S
Zr150       O154   2.355       .  S
Zr150       O153   2.357       .  S
Zr150       O178   2.341       .  S
Zr150       O180   2.332       .  S
O151        H192   0.990       .  S
O151        H195   0.988       .  S
O152        H185   0.990       .  S
O153       Zr173   2.375       .  S
O154       Zr174   2.380       .  S
O154        H181   0.966       .  S
O155       Zr167   2.513       .  S
O155        C157   1.299       .  A
O156       Zr174   2.371   1_655  S
O156        C157   1.270       .  A
C157        C841   1.505       .  S
O158       Zr170   2.424       .  S
O158        C160   1.286       .  A
O159       Zr173   2.470   1_655  S
O159        C160   1.291       .  A
C160        C701   1.482       .  S
O161       Zr170   2.406       .  S
O161        C163   1.283       .  A
O162       Zr174   2.524   1_655  S
O162        C163   1.303       .  A
C163        C591   1.499       .  S
O164       Zr167   2.499       .  S
O164        C166   1.298       .  A
O165       Zr173   2.411   1_655  S
O165        C166   1.289       .  A
C166       C1258   1.501       .  S
Zr167       O168   2.436       .  S
Zr167       O169   2.434       .  S
Zr167       O175   2.385       .  S
Zr167       O176   2.387       .  S
Zr167       O179   2.400   1_655  S
Zr167       O177   2.379   1_655  S
O168        H188   0.990       .  S
O168        H193   0.990       .  S
O169        H189   0.990       .  S
Zr170       O171   2.434       .  S
Zr170       O172   2.422       .  S
Zr170       O176   2.346       .  S
Zr170       O175   2.363       .  S
Zr170       O180   2.369   1_655  S
Zr170       O178   2.351   1_655  S
O171        H187   0.990       .  S
O172        H186   0.990       .  S
O172        H196   0.985       .  S
Zr173       O176   2.388   1_455  S
Zr173       O178   2.370       .  S
Zr173       O179   2.409       .  S
Zr174       O175   2.406   1_455  S
Zr174       O177   2.396       .  S
Zr174       O180   2.374       .  S
O175        H183   0.966       .  S
O178        H182   0.966       .  S
O179        H184   0.966       .  S
O197       Zr209   2.520       .  S
O197        C199   1.302       .  A
O198       Zr235   2.408       .  S
O198        C199   1.288       .  A
C199       C1378   1.510       .  S
O200       Zr212   2.420       .  S
O200        C202   1.278       .  A
O201       Zr236   2.508       .  S
O201        C202   1.295       .  A
C202        C270   1.499       .  S
O203       Zr212   2.404       .  S
O203        C205   1.283       .  A
O204       Zr235   2.507       .  S
O204        C205   1.297       .  A
C205        C385   1.512       .  S
O206       Zr209   2.533       .  S
O206        C208   1.306       .  A
O207       Zr236   2.348       .  S
O207        C208   1.270       .  A
C208        C911   1.515       .  S
Zr209       O210   2.434       .  S
Zr209       O211   2.435       .  S
Zr209       O215   2.393       .  S
Zr209       O216   2.379       .  S
Zr209       O239   2.380       .  S
Zr209       O241   2.389       .  S
O210        H253   0.990       .  S
O211        H252   0.990       .  S
O211        H256   0.990       .  S
Zr212       O213   2.427       .  S
Zr212       O214   2.433       .  S
Zr212       O216   2.361       .  S
Zr212       O215   2.363       .  S
Zr212       O240   2.357       .  S
Zr212       O242   2.363       .  S
O213        H254   0.989       .  S
O213        H257   0.988       .  S
O214        H247   0.990       .  S
O215       Zr235   2.400       .  S
O216       Zr236   2.411       .  S
O216        H243   0.965       .  S
O217       Zr229   2.399       .  S
O217        C219   1.274       .  A
O218       Zr236   2.479   1_655  S
O218        C219   1.304       .  A
C219        C861   1.492       .  S
O220       Zr232   2.368       .  S
O220        C222   1.275       .  A
O221       Zr235   2.495   1_655  S
O221        C222   1.293       .  A
C222        C538   1.490       .  S
O223       Zr232   2.418       .  S
O223        C225   1.284       .  A
O224       Zr236   2.503   1_655  S
O224        C225   1.299       .  A
C225        C760   1.501       .  S
O226       Zr229   2.385       .  S
O226        C228   1.274       .  A
O227       Zr235   2.450   1_655  S
O227        C228   1.295       .  A
C228       C1251   1.459       .  S
Zr229       O230   2.437       .  S
Zr229       O231   2.435       .  S
Zr229       O237   2.383       .  S
Zr229       O238   2.376       .  S
Zr229       O241   2.372   1_655  S
Zr229       O239   2.364   1_655  S
O230        H250   0.990       .  S
O230        H255   0.990       .  S
O231        H251   0.990       .  S
Zr232       O233   2.432       .  S
Zr232       O234   2.433       .  S
Zr232       O238   2.361       .  S
Zr232       O237   2.348       .  S
Zr232       O242   2.341   1_655  S
Zr232       O240   2.368   1_655  S
O233        H249   0.990       .  S
O234        H248   0.990       .  S
O234        H258   0.988       .  S
Zr235       O238   2.385   1_455  S
Zr235       O240   2.386       .  S
Zr235       O241   2.416       .  S
Zr236       O237   2.372   1_455  S
Zr236       O239   2.399       .  S
Zr236       O242   2.370       .  S
O237        H245   0.966       .  S
O240        H244   0.966       .  S
O241        H246   0.966       .  S
O259       Zr271   2.410       .  S
O259        C261   1.284       .  A
O260       Zr297   2.495   1_554  S
O260        C261   1.290       .  A
C261        C394   1.508       .  S
O262       Zr274   2.462       .  S
O262        C264   1.287       .  A
O263       Zr298   2.417       .  S
O263        C264   1.289       .  A
C264        C918   1.500       .  S
O265       Zr274   2.428       .  S
O265        C267   1.285       .  A
O266       Zr297   2.470   1_554  S
O266        C267   1.296       .  A
C267       C1088   1.479       .  S
O268       Zr271   2.438       .  S
O268        C270   1.289       .  A
O269       Zr298   2.486       .  S
O269        C270   1.295       .  A
Zr271       O272   2.433       .  S
Zr271       O273   2.430       .  S
Zr271       O277   2.356       .  S
Zr271       O278   2.355       .  S
Zr271       O301   2.355       .  S
Zr271       O303   2.369       .  S
O272        H315   0.990       .  S
O273        H314   0.990       .  S
O273        H318   0.989       .  S
Zr274       O275   2.435       .  S
Zr274       O276   2.434       .  S
Zr274       O278   2.385       .  S
Zr274       O277   2.385       .  S
Zr274       O302   2.382   1_554  S
Zr274       O304   2.361   1_554  S
O275        H316   0.990       .  S
O275        H319   0.990       .  S
O276        H309   0.990       .  S
O277       Zr297   2.397   1_554  S
O278       Zr298   2.380       .  S
O278        H305   0.966       .  S
O279       Zr291   2.422       .  S
O279        C281   1.277       .  A
O280       Zr298   2.491   1_556  S
O280        C281   1.290       .  A
C281        C642   1.494       .  S
O282       Zr294   2.493       .  S
O282        C284   1.293       .  A
O283       Zr297   2.411       .  S
O283        C284   1.271       .  A
C284       C1051   1.505       .  S
O285       Zr294   2.523       .  S
O285        C287   1.300       .  A
O286       Zr298   2.339   1_556  S
O286        C287   1.260       .  A
C287        C971   1.521       .  S
O288       Zr291   2.371       .  S
O288        C290   1.275       .  A
O289       Zr297   2.494       .  S
O289        C290   1.295       .  A
Zr291       O292   2.433       .  S
Zr291       O293   2.433       .  S
Zr291       O299   2.359       .  S
Zr291       O300   2.367       .  S
Zr291       O303   2.370   1_556  S
Zr291       O301   2.348   1_556  S
O292        H312   0.990       .  S
O292        H317   0.989       .  S
O293        H313   0.990       .  S
Zr294       O295   2.434       .  S
Zr294       O296   2.436       .  S
Zr294       O300   2.391       .  S
Zr294       O299   2.387       .  S
Zr294       O304   2.370       .  S
Zr294       O302   2.393       .  S
O295        H311   0.990       .  S
O296        H310   0.990       .  S
O296        H320   0.990       .  S
Zr297       O300   2.398       .  S
Zr297       O302   2.429       .  S
Zr297       O303   2.392   1_556  S
Zr298       O299   2.389   1_554  S
Zr298       O301   2.358       .  S
Zr298       O304   2.395   1_554  S
O299        H307   0.965       .  S
O302        H306   0.965       .  S
O303        H308   0.966       .  S
O321       Zr333   2.358       .  S
O321        C323   1.273       .  A
O322       Zr359   2.474       .  S
O322        C323   1.289       .  A
C323        C414   1.477       .  S
O324       Zr336   2.451       .  S
O324        C326   1.288       .  A
O325       Zr360   2.426       .  S
O325        C326   1.288       .  A
C326        C928   1.477       .  S
O327       Zr336   2.468       .  S
O327        C329   1.294       .  A
O328       Zr359   2.433       .  S
O328        C329   1.289       .  A
C329       C1328   1.483       .  S
O330       Zr333   2.382       .  S
O330        C332   1.280       .  A
O331       Zr360   2.512       .  S
O331        C332   1.298       .  A
C332        C450   1.505       .  S
Zr333       O334   2.432       .  S
Zr333       O335   2.432       .  S
Zr333       O339   2.355       .  S
Zr333       O340   2.336       .  S
Zr333       O363   2.347       .  S
Zr333       O365   2.356       .  S
O334        H377   0.990       .  S
O335        H376   0.990       .  S
O335        H380   0.988       .  S
Zr336       O337   2.435       .  S
Zr336       O338   2.434       .  S
Zr336       O340   2.381       .  S
Zr336       O339   2.372       .  S
Zr336       O364   2.361       .  S
Zr336       O366   2.383       .  S
O337        H378   0.990       .  S
O337        H381   0.990       .  S
O338        H371   0.990       .  S
O339       Zr359   2.397       .  S
O340       Zr360   2.389       .  S
O340        H367   0.966       .  S
O341       Zr353   2.406       .  S
O341        C343   1.284       .  A
O342       Zr360   2.494   1_655  S
O342        C343   1.292       .  A
C343        C580   1.506       .  S
O344       Zr356   2.468       .  S
O344        C346   1.286       .  A
O345       Zr359   2.422   1_655  S
O345        C346   1.271       .  A
C346       C1281   1.504       .  S
O347       Zr356   2.482       .  S
O347        C349   1.291       .  A
O348       Zr360   2.390   1_655  S
O348        C349   1.270       .  A
C349        C881   1.490       .  S
O350       Zr353   2.400       .  S
O350        C352   1.283       .  A
O351       Zr359   2.473   1_655  S
O351        C352   1.285       .  A
C352        C509   1.493       .  S
Zr353       O354   2.416       .  S
Zr353       O355   2.434       .  S
Zr353       O361   2.350       .  S
Zr353       O362   2.359       .  S
Zr353       O365   2.336   1_655  S
Zr353       O363   2.349   1_655  S
O354        H374   0.990       .  S
O354        H379   0.989       .  S
O355        H375   0.990       .  S
Zr356       O357   2.434       .  S
Zr356       O358   2.437       .  S
Zr356       O362   2.388       .  S
Zr356       O361   2.379       .  S
Zr356       O366   2.377   1_655  S
Zr356       O364   2.387   1_655  S
O357        H373   0.990       .  S
O358        H372   0.990       .  S
O358        H382   0.990       .  S
Zr359       O362   2.389   1_455  S
Zr359       O364   2.424       .  S
Zr359       O365   2.386       .  S
Zr360       O361   2.405   1_455  S
Zr360       O363   2.370       .  S
Zr360       O366   2.425       .  S
O361        H369   0.966       .  S
O364        H368   0.965       .  S
O365        H370   0.966       .  S
O383       Zr395   2.389       .  S
O383        C385   1.279       .  A
O384       Zr421   2.520       .  S
O384        C385   1.299       .  A
O386       Zr398   2.509       .  S
O386        C388   1.301       .  A
O387       Zr422   2.344       .  S
O387        C388   1.269       .  A
C388       C1078   1.497       .  S
O389       Zr398   2.506       .  S
O389        C391   1.298       .  A
O390       Zr421   2.385       .  S
O390        C391   1.271       .  A
C391       C1391   1.498       .  S
O392       Zr395   2.345       .  S
O392        C394   1.272       .  A
O393       Zr422   2.544       .  S
O393        C394   1.302       .  A
Zr395       O396   2.430       .  S
Zr395       O397   2.437       .  S
Zr395       O401   2.348       .  S
Zr395       O402   2.362       .  S
Zr395       O425   2.360       .  S
Zr395       O427   2.335       .  S
O396        H439   0.990       .  S
O397        H438   0.990       .  S
O397        H442   0.990       .  S
Zr398       O399   2.434       .  S
Zr398       O400   2.435       .  S
Zr398       O402   2.379       .  S
Zr398       O401   2.383       .  S
Zr398       O426   2.386       .  S
Zr398       O428   2.380       .  S
O399        H440   0.990       .  S
O399        H443   0.990       .  S
O400        H433   0.990       .  S
O401       Zr421   2.382       .  S
O402       Zr422   2.403       .  S
O402        H429   0.965       .  S
O403       Zr415   2.408       .  S
O403        C405   1.284       .  A
O404       Zr422   2.466   1_545  S
O404        C405   1.288       .  A
C405        C453   1.486       .  S
O406       Zr418   2.446       .  S
O406        C408   1.286       .  A
O407       Zr421   2.444   1_545  S
O407        C408   1.289       .  A
C408       C1338   1.499       .  S
O409       Zr418   2.441       .  S
O409        C411   1.285       .  A
O410       Zr422   2.481   1_545  S
O410        C411   1.300       .  A
C411       C1178   1.500       .  S
O412       Zr415   2.384       .  S
O412        C414   1.278       .  A
O413       Zr421   2.447   1_545  S
O413        C414   1.282       .  A
Zr415       O416   2.417       .  S
Zr415       O417   2.435       .  S
Zr415       O423   2.359       .  S
Zr415       O424   2.354       .  S
Zr415       O427   2.355   1_545  S
Zr415       O425   2.341   1_545  S
O416        H436   0.990       .  S
O416        H441   0.987       .  S
O417        H437   0.990       .  S
Zr418       O419   2.435       .  S
Zr418       O420   2.436       .  S
Zr418       O424   2.371       .  S
Zr418       O423   2.378       .  S
Zr418       O428   2.374   1_545  S
Zr418       O426   2.375   1_545  S
O419        H435   0.990       .  S
O420        H434   0.990       .  S
O420        H444   0.990       .  S
Zr421       O424   2.394   1_565  S
Zr421       O426   2.419       .  S
Zr421       O427   2.377       .  S
Zr422       O423   2.388   1_565  S
Zr422       O425   2.379       .  S
Zr422       O428   2.408       .  S
O423        H431   0.966       .  S
O426        H430   0.965       .  S
O427        H432   0.966       .  S
O445       Zr457   2.515       .  S
O445        C447   1.304       .  A
O446       Zr483   2.373   1_554  S
O446        C447   1.278       .  A
C447       C1188   1.478       .  S
O448       Zr460   2.399       .  S
O448        C450   1.282       .  A
O449       Zr484   2.498   1_554  S
O449        C450   1.294       .  A
O451       Zr460   2.383       .  S
O451        C453   1.273       .  A
O452       Zr483   2.509   1_554  S
O452        C453   1.296       .  A
O454       Zr457   2.472       .  S
O454        C456   1.293       .  A
O455       Zr484   2.451   1_554  S
O455        C456   1.296       .  A
C456        C938   1.495       .  S
Zr457       O458   2.434       .  S
Zr457       O459   2.435       .  S
Zr457       O463   2.378       .  S
Zr457       O464   2.395       .  S
Zr457       O487   2.390   1_554  S
Zr457       O489   2.353   1_554  S
O458        H501   0.990       .  S
O459        H500   0.990       .  S
O459        H504   0.990       .  S
Zr460       O461   2.436       .  S
Zr460       O462   2.431       .  S
Zr460       O464   2.354       .  S
Zr460       O463   2.363       .  S
Zr460       O488   2.372   1_554  S
Zr460       O490   2.351   1_554  S
O461        H502   0.990       .  S
O461        H505   0.989       .  S
O462        H495   0.990       .  S
O463       Zr483   2.397   1_554  S
O464       Zr484   2.401   1_554  S
O464        H491   0.966       .  S
O465       Zr477   2.471       .  S
O465        C467   1.292       .  A
O466       Zr484   2.416       .  S
O466        C467   1.289       .  A
C467        C991   1.492       .  S
O468       Zr480   2.412       .  S
O468        C470   1.283       .  A
O469       Zr483   2.470       .  S
O469        C470   1.293       .  A
O471       Zr480   2.348       .  S
O471        C473   1.272       .  A
O472       Zr484   2.524       .  S
O472        C473   1.300       .  A
O474       Zr477   2.459       .  S
O474        C476   1.292       .  A
O475       Zr483   2.427       .  S
O475        C476   1.289       .  A
C476       C1141   1.472       .  S
Zr477       O478   2.435       .  S
Zr477       O479   2.434       .  S
Zr477       O485   2.373       .  S
Zr477       O486   2.387       .  S
Zr477       O489   2.369       .  S
Zr477       O487   2.375       .  S
O478        H498   0.990       .  S
O478        H503   0.990       .  S
O479        H499   0.990       .  S
Zr480       O481   2.429       .  S
Zr480       O482   2.439       .  S
Zr480       O486   2.344       .  S
Zr480       O485   2.354       .  S
Zr480       O490   2.369       .  S
Zr480       O488   2.318       .  S
O481        H497   0.989       .  S
O482        H496   0.990       .  S
O482        H506   0.990       .  S
Zr483       O486   2.380       .  S
Zr483       O488   2.362       .  S
Zr483       O489   2.414       .  S
Zr484       O485   2.397       .  S
Zr484       O487   2.416       .  S
Zr484       O490   2.377       .  S
O485        H493   0.966       .  S
O488        H492   0.965       .  S
O489        H494   0.964       .  S
O507       Zr519   2.357       .  S
O507        C509   1.273       .  A
O508       Zr545   2.508   1_545  S
O508        C509   1.297       .  A
O510       Zr522   2.426       .  S
O510        C512   1.285       .  A
O511       Zr546   2.470   1_545  S
O511        C512   1.297       .  A
C512       C1158   1.481       .  S
O513       Zr522   2.466       .  S
O513        C515   1.292       .  A
O514       Zr545   2.430   1_545  S
O514        C515   1.279       .  A
C515       C1288   1.480       .  S
O516       Zr519   2.375       .  S
O516        C518   1.279       .  A
O517       Zr546   2.483   1_545  S
O517        C518   1.292       .  A
C518        C571   1.487       .  S
Zr519       O520   2.430       .  S
Zr519       O521   2.435       .  S
Zr519       O525   2.352       .  S
Zr519       O526   2.346       .  S
Zr519       O549   2.341   1_545  S
Zr519       O551   2.351   1_545  S
O520        H563   0.990       .  S
O521        H562   0.990       .  S
O521        H566   0.990       .  S
Zr522       O523   2.435       .  S
Zr522       O524   2.434       .  S
Zr522       O526   2.385       .  S
Zr522       O525   2.363       .  S
Zr522       O550   2.357   1_545  S
Zr522       O552   2.380   1_545  S
O523        H564   0.990       .  S
O523        H567   0.990       .  S
O524        H557   0.990   1_545  S
O525       Zr545   2.385   1_545  S
O526       Zr546   2.392   1_545  S
O526        H553   0.966       .  S
O527       Zr539   2.381       .  S
O527        C529   1.279       .  A
O528       Zr546   2.546       .  S
O528        C529   1.303       .  A
C529        C763   1.521       .  S
O530       Zr542   2.462       .  S
O530        C532   1.284       .  A
O531       Zr545   2.451       .  S
O531        C532   1.277       .  A
C532       C1238   1.503       .  S
O533       Zr542   2.486       .  S
O533        C535   1.295       .  A
O534       Zr546   2.367       .  S
O534        C535   1.276       .  A
C535       C1058   1.494       .  S
O536       Zr539   2.393       .  S
O536        C538   1.281       .  A
O537       Zr545   2.476       .  S
O537        C538   1.287       .  A
Zr539       O540   2.424       .  S
Zr539       O541   2.434       .  S
Zr539       O547   2.360       .  S
Zr539       O548   2.347       .  S
Zr539       O551   2.343       .  S
Zr539       O549   2.353       .  S
O540        H560   0.990       .  S
O540        H565   0.988       .  S
O541        H561   0.990       .  S
Zr542       O543   2.435       .  S
Zr542       O544   2.435       .  S
Zr542       O548   2.389       .  S
Zr542       O547   2.384       .  S
Zr542       O552   2.370       .  S
Zr542       O550   2.407       .  S
O543        H559   0.990       .  S
O544        H558   0.990       .  S
O544        H568   0.990       .  S
Zr545       O548   2.396       .  S
Zr545       O550   2.420       .  S
Zr545       O551   2.383       .  S
Zr546       O547   2.397       .  S
Zr546       O549   2.374       .  S
Zr546       O552   2.415       .  S
O547        H555   0.965       .  S
O550        H554   0.965       .  S
O551        H556   0.966       .  S
O569       Zr581   2.382       .  S
O569        C571   1.279       .  A
O570       Zr607   2.474   1_554  S
O570        C571   1.288       .  A
O572       Zr584   2.494       .  S
O572        C574   1.295       .  A
O573       Zr608   2.411   1_554  S
O573        C574   1.288       .  A
C574        C888   1.508       .  S
O575       Zr584   2.488       .  S
O575        C577   1.296       .  A
O576       Zr607   2.396   1_554  S
O576        C577   1.282       .  A
C577       C1168   1.513       .  S
O578       Zr581   2.359       .  S
O578        C580   1.275       .  A
O579       Zr608   2.527   1_554  S
O579        C580   1.300       .  A
Zr581       O582   2.432       .  S
Zr581       O583   2.433       .  S
Zr581       O587   2.332       .  S
Zr581       O588   2.353       .  S
Zr581       O611   2.348   1_554  S
Zr581       O613   2.346   1_554  S
O582        H625   0.990       .  S
O583        H624   0.990       .  S
O583        H628   0.988       .  S
Zr584       O585   2.436       .  S
Zr584       O586   2.435       .  S
Zr584       O588   2.383       .  S
Zr584       O587   2.375       .  S
Zr584       O612   2.385   1_554  S
Zr584       O614   2.381   1_554  S
O585        H626   0.990       .  S
O585        H629   0.990       .  S
O586        H619   0.990       .  S
O587       Zr607   2.382   1_554  S
O588       Zr608   2.397   1_554  S
O588        H615   0.966       .  S
O589       Zr601   2.432       .  S
O589        C591   1.279       .  A
O590       Zr608   2.497       .  S
O590        C591   1.291       .  A
O592       Zr604   2.456       .  S
O592        C594   1.288       .  A
O593       Zr607   2.405       .  S
O593        C594   1.287       .  A
C594       C1121   1.479       .  S
O595       Zr604   2.448       .  S
O595        C597   1.287       .  A
O596       Zr608   2.436       .  S
O596        C597   1.294       .  A
C597        C851   1.480       .  S
O598       Zr601   2.406       .  S
O598        C600   1.283       .  A
O599       Zr607   2.469       .  S
O599        C600   1.292       .  A
C600        C698   1.479       .  S
Zr601       O602   2.420       .  S
Zr601       O603   2.428       .  S
Zr601       O609   2.366       .  S
Zr601       O610   2.370       .  S
Zr601       O613   2.358       .  S
Zr601       O611   2.347       .  S
O602        H622   0.989       .  S
O602        H627   0.984       .  S
O603        H623   0.990       .  S
Zr604       O605   2.434       .  S
Zr604       O606   2.436       .  S
Zr604       O610   2.382       .  S
Zr604       O609   2.386       .  S
Zr604       O614   2.380       .  S
Zr604       O612   2.375       .  S
O605        H621   0.990       .  S
O606        H620   0.990       .  S
O606        H630   0.990       .  S
Zr607       O610   2.380       .  S
Zr607       O612   2.411       .  S
Zr607       O613   2.366       .  S
Zr608       O609   2.396       .  S
Zr608       O611   2.371       .  S
Zr608       O614   2.408       .  S
O609        H617   0.965       .  S
O612        H616   0.965       .  S
O613        H618   0.966       .  S
O631       Zr643   2.422       .  S
O631        C633   1.285       .  A
O632       Zr669   2.464       .  S
O632        C633   1.290       .  A
O634       Zr646   2.440       .  S
O634        C636   1.282       .  A
O635       Zr670   2.423       .  S
O635        C636   1.291       .  A
C636        C961   1.490       .  S
O637       Zr646   2.412       .  S
O637        C639   1.280       .  A
O638       Zr669   2.464       .  S
O638        C639   1.297       .  A
C639       C1358   1.470       .  S
O640       Zr643   2.425       .  S
O640        C642   1.285       .  A
O641       Zr670   2.488       .  S
O641        C642   1.296       .  A
Zr643       O644   2.434       .  S
Zr643       O645   2.430       .  S
Zr643       O649   2.358       .  S
Zr643       O650   2.357       .  S
Zr643       O673   2.354       .  S
Zr643       O675   2.368       .  S
O644        H687   0.990       .  S
O645        H686   0.990       .  S
O645        H690   0.988       .  S
Zr646       O647   2.438       .  S
Zr646       O648   2.435       .  S
Zr646       O650   2.378       .  S
Zr646       O649   2.382       .  S
Zr646       O674   2.397       .  S
Zr646       O676   2.377       .  S
O647        H688   0.990       .  S
O647        H691   0.990       .  S
O648        H681   0.990       .  S
O649       Zr669   2.386       .  S
O650       Zr670   2.384       .  S
O650        H677   0.966       .  S
O651       Zr663   2.421       .  S
O651        C653   1.278       .  A
O652       Zr670   2.472   1_655  S
O652        C653   1.286       .  A
C653        C783   1.490       .  S
O654       Zr666   2.530       .  S
O654        C656   1.302       .  A
O655       Zr669   2.397   1_655  S
O655        C656   1.280       .  A
C656       C1221   1.531       .  S
O657       Zr666   2.512       .  S
O657        C659   1.301       .  A
O658       Zr670   2.398   1_655  S
O658        C659   1.285       .  A
C659        C821   1.505       .  S
O660       Zr663   2.382       .  S
O660        C662   1.279       .  A
O661       Zr669   2.488   1_655  S
O661        C662   1.291       .  A
C662        C718   1.494       .  S
Zr663       O664   2.420       .  S
Zr663       O665   2.432       .  S
Zr663       O671   2.354       .  S
Zr663       O672   2.356       .  S
Zr663       O675   2.357   1_655  S
Zr663       O673   2.344   1_655  S
O664        H684   0.988       .  S
O664        H689   0.986       .  S
O665        H685   0.990       .  S
Zr666       O667   2.434       .  S
Zr666       O668   2.434       .  S
Zr666       O672   2.372       .  S
Zr666       O671   2.384       .  S
Zr666       O676   2.393   1_655  S
Zr666       O674   2.392   1_655  S
O667        H683   0.990       .  S
O668        H682   0.990       .  S
O668        H692   0.990       .  S
Zr669       O672   2.383   1_455  S
Zr669       O674   2.411       .  S
Zr669       O675   2.388       .  S
Zr670       O671   2.393   1_455  S
Zr670       O673   2.366       .  S
Zr670       O676   2.400       .  S
O671        H679   0.964       .  S
O674        H678   0.966       .  S
O675        H680   0.966       .  S
O693       Zr705   2.456       .  S
O693        C695   1.289       .  A
O694       Zr731   2.369   1_545  S
O694        C695   1.278       .  A
C695       C1271   1.478       .  S
O696       Zr708   2.412       .  S
O696        C698   1.281       .  A
O697       Zr732   2.462   1_545  S
O697        C698   1.287       .  A
O699       Zr708   2.401       .  S
O699        C701   1.273       .  A
O700       Zr731   2.490   1_545  S
O700        C701   1.289       .  A
O702       Zr705   2.511       .  S
O702        C704   1.300       .  A
O703       Zr732   2.360   1_545  S
O703        C704   1.276       .  A
C704       C1108   1.502       .  S
Zr705       O706   2.434       .  S
Zr705       O707   2.436       .  S
Zr705       O711   2.397       .  S
Zr705       O712   2.370       .  S
Zr705       O735   2.360   1_545  S
Zr705       O737   2.392   1_545  S
O706        H749   0.990       .  S
O707        H748   0.990       .  S
O707        H752   0.990       .  S
Zr708       O709   2.425       .  S
Zr708       O710   2.429       .  S
Zr708       O712   2.364       .  S
Zr708       O711   2.360       .  S
Zr708       O736   2.371   1_545  S
Zr708       O738   2.349   1_545  S
O709        H750   0.989       .  S
O709        H753   0.986       .  S
O710        H743   0.990       .  S
O711       Zr731   2.392   1_545  S
O712       Zr732   2.374   1_545  S
O712        H739   0.966       .  S
O713       Zr725   2.488       .  S
O713        C715   1.297       .  A
O714       Zr732   2.378       .  S
O714        C715   1.279       .  A
C715       C1021   1.488       .  S
O716       Zr728   2.392       .  S
O716        C718   1.280       .  A
O717       Zr731   2.488       .  S
O717        C718   1.292       .  A
O719       Zr728   2.424       .  S
O719        C721   1.277       .  A
O720       Zr732   2.433       .  S
O720        C721   1.276       .  A
C721        C780   1.471       .  S
O722       Zr725   2.503       .  S
O722        C724   1.301       .  A
O723       Zr731   2.416       .  S
O723        C724   1.285       .  A
C724       C1231   1.498       .  S
Zr725       O726   2.436       .  S
Zr725       O727   2.433       .  S
Zr725       O733   2.384       .  S
Zr725       O734   2.375       .  S
Zr725       O737   2.369       .  S
Zr725       O735   2.383       .  S
O726        H746   0.990       .  S
O726        H751   0.990       .  S
O727        H747   0.990       .  S
Zr728       O729   2.424       .  S
Zr728       O730   2.415       .  S
Zr728       O734   2.357       .  S
Zr728       O733   2.350       .  S
Zr728       O738   2.356       .  S
Zr728       O736   2.356       .  S
O729        H745   0.990       .  S
O730        H744   0.990       .  S
O730        H754   0.985       .  S
Zr731       O734   2.386       .  S
Zr731       O736   2.374       .  S
Zr731       O737   2.419       .  S
Zr732       O733   2.398       .  S
Zr732       O735   2.391       .  S
Zr732       O738   2.364       .  S
O733        H741   0.966       .  S
O736        H740   0.965       .  S
O737        H742   0.966       .  S
O755       Zr767   2.529       .  S
O755        C757   1.304       .  A
O756       Zr793   2.369   1_554  S
O756        C757   1.267       .  A
C757       C1068   1.505       .  S
O758       Zr770   2.430       .  S
O758        C760   1.282       .  A
O759       Zr794   2.501   1_554  S
O759        C760   1.293       .  A
O761       Zr770   2.404       .  S
O761        C763   1.284       .  A
O762       Zr793   2.530   1_554  S
O762        C763   1.301       .  A
O764       Zr767   2.539       .  S
O764        C766   1.305       .  A
O765       Zr794   2.363   1_554  S
O765        C766   1.269       .  A
C766        C871   1.525       .  S
Zr767       O768   2.434       .  S
Zr767       O769   2.434       .  S
Zr767       O773   2.378       .  S
Zr767       O774   2.385       .  S
Zr767       O797   2.377   1_554  S
Zr767       O799   2.389   1_554  S
O768        H811   0.990       .  S
O769        H810   0.990       .  S
O769        H814   0.990       .  S
Zr770       O771   2.431       .  S
Zr770       O772   2.433       .  S
Zr770       O774   2.357       .  S
Zr770       O773   2.359       .  S
Zr770       O798   2.364   1_554  S
Zr770       O800   2.352   1_554  S
O771        H812   0.989       .  S
O771        H815   0.989       .  S
O772        H805   0.990       .  S
O773       Zr793   2.406   1_554  S
O774       Zr794   2.403   1_554  S
O774        H801   0.965       .  S
O775       Zr787   2.437       .  S
O775        C777   1.284       .  A
O776       Zr794   2.440       .  S
O776        C777   1.293       .  A
C777        C831   1.476       .  S
O778       Zr790   2.393       .  S
O778        C780   1.280       .  A
O779       Zr793   2.474       .  S
O779        C780   1.295       .  A
O781       Zr790   2.409       .  S
O781        C783   1.282       .  A
O782       Zr794   2.490       .  S
O782        C783   1.297       .  A
O784       Zr787   2.422       .  S
O784        C786   1.282       .  A
O785       Zr793   2.533       .  S
O785        C786   1.310       .  A
C786       C1028   1.507       .  S
Zr787       O788   2.435       .  S
Zr787       O789   2.434       .  S
Zr787       O795   2.381       .  S
Zr787       O796   2.385       .  S
Zr787       O799   2.376       .  S
Zr787       O797   2.362       .  S
O788        H808   0.990       .  S
O788        H813   0.990       .  S
O789        H809   0.990       .  S
Zr790       O791   2.426       .  S
Zr790       O792   2.439       .  S
Zr790       O796   2.368       .  S
Zr790       O795   2.357       .  S
Zr790       O800   2.344       .  S
Zr790       O798   2.358       .  S
O791        H807   0.989       .  S
O792        H806   0.990       .  S
O792        H816   0.990       .  S
Zr793       O796   2.380       .  S
Zr793       O798   2.382       .  S
Zr793       O799   2.419       .  S
Zr794       O795   2.373       .  S
Zr794       O797   2.399       .  S
Zr794       O800   2.357       .  S
O795        H803   0.966       .  S
O798        H802   0.966       .  S
O799        H804   0.965       .  S
C817        C818   1.427       .  A
C817        C822   1.427       .  A
C817       Br824   1.933       .  S
C818        C819   1.401       .  A
C819        C820   1.390       .  A
C819       Br826   1.913       .  S
C820        C821   1.410       .  A
C820       Br825   1.916       .  S
C821        C822   1.415       .  A
C822       Br823   1.927       .  S
C827        C828   1.406       .  A
C827        C832   1.379       .  A
C827       Br834   1.860       .  S
C828        C829   1.426       .  A
C829        C830   1.421       .  A
C829       Br836   1.911       .  S
C830        C831   1.406       .  A
C830       Br835   1.918       .  S
C831        C832   1.382       .  A
C832       Br833   1.910       .  S
C837        C838   1.417       .  A
C837        C842   1.419       .  A
C837       Br844   1.926       .  S
C838        C839   1.413       .  A
C839        C840   1.402       .  A
C839       Br846   1.939       .  S
C840        C841   1.429       .  A
C840       Br845   1.957       .  S
C841        C842   1.416       .  A
C842       Br843   1.928       .  S
C847        C848   1.421       .  A
C847        C852   1.388       .  A
C847       Br854   1.900       .  S
C848        C849   1.430       .  A
C849        C850   1.425       .  A
C849       Br856   1.914       .  S
C850        C851   1.409       .  A
C850       Br855   1.919       .  S
C851        C852   1.386       .  A
C852       Br853   1.923       .  S
C857        C858   1.397       .  A
C857        C862   1.384       .  A
C857       Br864   1.848       .  S
C858        C859   1.431       .  A
C859        C860   1.441       .  A
C859       Br866   1.913       .  S
C860        C861   1.423       .  A
C860       Br865   1.919       .  S
C861        C862   1.379       .  A
C862       Br863   1.925       .  S
C867        C868   1.417       .  A
C867        C872   1.425       .  A
C867       Br874   1.926       .  S
C868        C869   1.411       .  A
C869        C870   1.410       .  A
C869       Br876   1.933       .  S
C870        C871   1.440       .  A
C870       Br875   1.968       .  S
C871        C872   1.420       .  A
C872       Br873   1.928       .  S
C877        C878   1.415       .  A
C877        C882   1.395       .  A
C877       Br884   1.921       .  S
C878        C879   1.415       .  A
C879        C880   1.418       .  A
C879       Br886   1.921       .  S
C880        C881   1.415       .  A
C880       Br885   1.928       .  S
C881        C882   1.419       .  A
C882       Br883   1.949   1_655  S
C887        C888   1.426       .  A
C887        C892   1.445       .  A
C887       Br894   1.919       .  S
C888        C889   1.401       .  A
C889        C890   1.380       .  A
C889       Br896   1.921       .  S
C890        C891   1.384       .  A
C890       Br895   1.880       .  S
C891        C892   1.429       .  A
C892       Br893   1.915       .  S
C897        C898   1.423       .  A
C897        C902   1.445   1_554  A
C897       Br904   1.919       .  S
C898        C899   1.408       .  A
C899        C900   1.413   1_554  A
C899       Br906   1.937       .  S
C900        C901   1.419       .  A
C900       Br905   1.865       .  S
C901        C902   1.433       .  A
C902       Br903   1.917       .  S
C907        C908   1.420       .  A
C907        C912   1.422       .  A
C907       Br914   1.927       .  S
C908        C909   1.404       .  A
C909        C910   1.401       .  A
C909       Br916   1.936       .  S
C910        C911   1.436       .  A
C910       Br915   1.967       .  S
C911        C912   1.420       .  A
C912       Br913   1.930       .  S
C917        C918   1.393       .  A
C917        C922   1.384       .  A
C917       Br924   1.918       .  S
C918        C919   1.417       .  A
C919        C920   1.434       .  A
C919       Br926   1.920       .  S
C920        C921   1.427       .  A
C920       Br925   1.926       .  S
C921        C922   1.396       .  A
C922       Br923   1.886       .  S
C927        C928   1.402       .  A
C927        C932   1.419       .  A
C927       Br934   1.924       .  S
C928        C929   1.390       .  A
C929        C930   1.393       .  A
C929       Br936   1.932       .  S
C930        C931   1.433       .  A
C930       Br935   1.917       .  S
C931        C932   1.431       .  A
C932       Br933   1.917       .  S
C937        C938   1.409       .  A
C937        C942   1.430       .  A
C937       Br944   1.919       .  S
C938        C939   1.386       .  A
C939        C940   1.392       .  A
C939       Br946   1.922   1_554  S
C940        C941   1.428       .  A
C940       Br945   1.888       .  S
C941        C942   1.431       .  A
C942       Br943   1.920       .  S
C947        C948   1.452       .  A
C947        C952   1.468       .  A
C947       Br954   1.929       .  S
C948        C949   1.416       .  A
C949        C950   1.408       .  A
C949       Br956   1.876       .  S
C950        C951   1.409   1_455  A
C950       Br955   1.936       .  S
C951        C952   1.448   1_655  A
C952       Br953   1.910   1_455  S
C957        C958   1.409       .  A
C957        C962   1.378       .  A
C957       Br964   1.899       .  S
C958        C959   1.427       .  A
C959        C960   1.430       .  A
C959       Br966   1.929       .  S
C960        C961   1.417       .  A
C960       Br965   1.920       .  S
C961        C962   1.390       .  A
C962       Br963   1.919       .  S
C967        C968   1.415       .  A
C967        C972   1.420       .  A
C967       Br974   1.925       .  S
C968        C969   1.402       .  A
C969        C970   1.406       .  A
C969       Br976   1.927       .  S
C970        C971   1.446       .  A
C970       Br975   1.964       .  S
C971        C972   1.420       .  A
C972       Br973   1.931       .  S
C977        C978   1.434       .  A
C977        C982   1.437       .  A
C977       Br984   1.909       .  S
C978        C979   1.400       .  A
C979        C980   1.382       .  A
C979       Br986   1.862       .  S
C980        C981   1.371       .  A
C980       Br985   1.916       .  S
C981        C982   1.414       .  A
C982       Br983   1.915       .  S
C987        C988   1.433       .  A
C987        C992   1.425       .  A
C987       Br994   1.916       .  S
C988        C989   1.420       .  A
C989        C990   1.387       .  A
C989       Br996   1.918       .  S
C990        C991   1.392       .  A
C990       Br995   1.913       .  S
C991        C992   1.407       .  A
C992       Br993   1.928       .  S
C997        C998   1.409       .  A
C997       C1002   1.413   1_556  A
C997      Br1004   1.904       .  S
C998        C999   1.434       .  A
C999       C1000   1.439   1_556  A
C999      Br1006   1.914       .  S
C1000      C1001   1.420       .  A
C1000     Br1005   1.919       .  S
C1001      C1002   1.413       .  A
C1002     Br1003   1.894       .  S
C1007      C1008   1.469       .  A
C1007      C1012   1.488   1_655  A
C1007     Br1014   1.905       .  S
C1008      C1009   1.387   1_655  A
C1009      C1010   1.404       .  A
C1009     Br1016   1.884       .  S
C1010      C1011   1.394       .  A
C1010     Br1015   1.965       .  S
C1011      C1012   1.460       .  A
C1012     Br1013   1.916       .  S
C1017      C1018   1.422       .  A
C1017      C1022   1.417       .  A
C1017     Br1024   1.923       .  S
C1018      C1019   1.405       .  A
C1019      C1020   1.392       .  A
C1019     Br1026   1.905       .  S
C1020      C1021   1.414       .  A
C1020     Br1025   1.933       .  S
C1021      C1022   1.411       .  A
C1022     Br1023   1.929       .  S
C1027      C1028   1.430       .  A
C1027      C1032   1.442       .  A
C1027     Br1034   1.923       .  S
C1028      C1029   1.403       .  A
C1029      C1030   1.413       .  A
C1029     Br1036   1.928       .  S
C1030      C1031   1.414       .  A
C1030     Br1035   1.917       .  S
C1031      C1032   1.427       .  A
C1032     Br1033   1.919       .  S
C1037      C1038   1.424       .  A
C1037      C1042   1.432       .  A
C1037     Br1044   1.920       .  S
C1038      C1039   1.399       .  A
C1039      C1040   1.385       .  A
C1039     Br1046   1.891       .  S
C1040      C1041   1.422       .  A
C1040     Br1045   1.948       .  S
C1041      C1042   1.422       .  A
C1042     Br1043   1.927       .  S
C1047      C1048   1.414       .  A
C1047      C1052   1.419       .  A
C1047     Br1054   1.927       .  S
C1048      C1049   1.409       .  A
C1049      C1050   1.405       .  A
C1049     Br1056   1.924       .  S
C1050      C1051   1.428       .  A
C1050     Br1055   1.947       .  S
C1051      C1052   1.419       .  A
C1052     Br1053   1.929       .  S
C1057      C1058   1.414       .  A
C1057      C1062   1.419       .  A
C1057     Br1064   1.928       .  S
C1058      C1059   1.417       .  A
C1059      C1060   1.383       .  A
C1059     Br1066   1.928       .  S
C1060      C1061   1.399       .  A
C1060     Br1065   1.923       .  S
C1061      C1062   1.421       .  A
C1062     Br1063   1.923       .  S
C1067      C1068   1.414       .  A
C1067      C1072   1.411       .  A
C1067     Br1074   1.930       .  S
C1068      C1069   1.440       .  A
C1069      C1070   1.411       .  A
C1069     Br1076   1.946       .  S
C1070      C1071   1.398       .  A
C1070     Br1075   1.959       .  S
C1071      C1072   1.413       .  A
C1072     Br1073   1.927       .  S
C1077      C1078   1.418       .  A
C1077      C1082   1.412       .  A
C1077     Br1084   1.931       .  S
C1078      C1079   1.437       .  A
C1079      C1080   1.394       .  A
C1079     Br1086   1.940       .  S
C1080      C1081   1.393       .  A
C1080     Br1085   1.943       .  S
C1081      C1082   1.410       .  A
C1082     Br1083   1.931       .  S
C1087      C1088   1.403       .  A
C1087      C1092   1.401       .  A
C1087     Br1094   1.927       .  S
C1088      C1089   1.419       .  A
C1089      C1090   1.427       .  A
C1089     Br1096   1.923       .  S
C1090      C1091   1.422       .  A
C1090     Br1095   1.913       .  S
C1091      C1092   1.410       .  A
C1092     Br1093   1.921       .  S
C1097      C1098   1.427       .  A
C1097      C1102   1.422   1_554  A
C1097     Br1104   1.921       .  S
C1098      C1099   1.430       .  A
C1099      C1100   1.424   1_554  A
C1099     Br1106   1.897       .  S
C1100      C1101   1.420       .  A
C1100     Br1105   1.915       .  S
C1101      C1102   1.430       .  A
C1102     Br1103   1.886       .  S
C1107      C1108   1.412       .  A
C1107      C1112   1.425       .  A
C1107     Br1114   1.928       .  S
C1108      C1109   1.412       .  A
C1109      C1110   1.389       .  A
C1109     Br1116   1.928       .  S
C1110      C1111   1.406       .  A
C1110     Br1115   1.911       .  S
C1111      C1112   1.429       .  A
C1112     Br1113   1.918       .  S
C1117      C1118   1.390       .  A
C1117      C1122   1.375       .  A
C1117     Br1124   1.897       .  S
C1118      C1119   1.423       .  A
C1119      C1120   1.420       .  A
C1119     Br1126   1.918       .  S
C1120      C1121   1.407       .  A
C1120     Br1125   1.921       .  S
C1121      C1122   1.393       .  A
C1122     Br1123   1.887   1_556  S
C1127      C1128   1.417       .  A
C1127      C1132   1.393       .  A
C1127     Br1134   1.935       .  S
C1128      C1129   1.408       .  A
C1129      C1130   1.412       .  A
C1129     Br1136   1.932       .  S
C1130      C1131   1.422       .  A
C1130     Br1135   1.916       .  S
C1131      C1132   1.404       .  A
C1132     Br1133   1.915       .  S
C1137      C1138   1.413       .  A
C1137      C1142   1.404       .  A
C1137     Br1144   1.917       .  S
C1138      C1139   1.414       .  A
C1139      C1140   1.418       .  A
C1139     Br1146   1.905       .  S
C1140      C1141   1.411       .  A
C1140     Br1145   1.920       .  S
C1141      C1142   1.399       .  A
C1142     Br1143   1.926       .  S
C1147      C1148   1.419   1_565  A
C1147      C1152   1.423       .  A
C1147     Br1154   1.934   1_565  S
C1148      C1149   1.420   1_545  A
C1149      C1150   1.417       .  A
C1149     Br1156   1.912   1_565  S
C1150      C1151   1.415       .  A
C1150     Br1155   1.919       .  S
C1151      C1152   1.424       .  A
C1152     Br1153   1.927       .  S
C1157      C1158   1.400       .  A
C1157      C1162   1.410       .  A
C1157     Br1164   1.928       .  S
C1158      C1159   1.412       .  A
C1159      C1160   1.429       .  A
C1159     Br1166   1.929       .  S
C1160      C1161   1.432       .  A
C1160     Br1165   1.884       .  S
C1161      C1162   1.416       .  A
C1162     Br1163   1.923       .  S
C1167      C1168   1.425       .  A
C1167      C1172   1.416       .  A
C1167     Br1174   1.931       .  S
C1168      C1169   1.431       .  A
C1169      C1170   1.403       .  A
C1169     Br1176   1.933       .  S
C1170      C1171   1.397       .  A
C1170     Br1175   1.932       .  S
C1171      C1172   1.415       .  A
C1172     Br1173   1.942       .  S
C1177      C1178   1.403       .  A
C1177      C1182   1.412       .  A
C1177     Br1184   1.925   1_545  S
C1178      C1179   1.424       .  A
C1179      C1180   1.443       .  A
C1179     Br1186   1.928       .  S
C1180      C1181   1.412       .  A
C1180     Br1185   1.925       .  S
C1181      C1182   1.416       .  A
C1182     Br1183   1.924       .  S
C1187      C1188   1.425       .  A
C1187      C1192   1.428       .  A
C1187     Br1194   1.917       .  S
C1188      C1189   1.420       .  A
C1189      C1190   1.382       .  A
C1189     Br1196   1.915       .  S
C1190      C1191   1.402       .  A
C1190     Br1195   1.967       .  S
C1191      C1192   1.422       .  A
C1192     Br1193   1.908       .  S
C1197      C1198   1.447   1_565  A
C1197      C1202   1.424       .  A
C1197     Br1204   1.914   1_565  S
C1198      C1199   1.437   1_545  A
C1199      C1200   1.421       .  A
C1199     Br1206   1.919   1_565  S
C1200      C1201   1.402       .  A
C1200     Br1205   1.912       .  S
C1201      C1202   1.415       .  A
C1202     Br1203   1.918       .  S
C1207      C1208   1.425       .  A
C1207      C1212   1.424   1_554  A
C1207     Br1214   1.901       .  S
C1208      C1209   1.454       .  A
C1209      C1210   1.458   1_554  A
C1209     Br1216   1.909       .  S
C1210      C1211   1.434       .  A
C1210     Br1215   1.937       .  S
C1211      C1212   1.419       .  A
C1212     Br1213   1.914       .  S
C1217      C1218   1.631       .  A
C1217      C1222   1.595       .  A
C1217     Br1224   1.902       .  S
C1218      C1219   1.652       .  A
C1219      C1220   1.635       .  A
C1219     Br1226   1.908       .  S
C1220      C1221   1.637       .  A
C1220     Br1225   1.919       .  S
C1221      C1222   1.617       .  A
C1222     Br1223   1.930       .  S
C1227      C1228   1.399       .  A
C1227      C1232   1.391       .  A
C1227     Br1234   1.919       .  S
C1228      C1229   1.534       .  A
C1229      C1230   1.493       .  A
C1229     Br1236   3.694       .  S
C1230      C1231   1.414       .  A
C1230     Br1235   1.967       .  S
C1231      C1232   1.392       .  A
C1232     Br1233   1.920       .  S
C1237      C1238   1.411       .  A
C1237      C1242   1.395       .  A
C1237     Br1244   1.952       .  S
C1238      C1239   1.423       .  A
C1239      C1240   1.429       .  A
C1239     Br1246   1.926       .  S
C1240      C1241   1.416       .  A
C1240     Br1245   1.925       .  S
C1241      C1242   1.403       .  A
C1242     Br1243   1.853       .  S
C1247      C1248   1.441       .  A
C1247      C1252   1.388       .  A
C1247     Br1254   1.925       .  S
C1248      C1249   1.426       .  A
C1249      C1250   1.408       .  A
C1249     Br1256   1.907       .  S
C1250      C1251   1.399       .  A
C1250     Br1255   1.921       .  S
C1251      C1252   1.386       .  A
C1252     Br1253   1.928       .  S
C1257      C1258   1.411       .  A
C1257      C1262   1.432       .  A
C1257     Br1264   1.920       .  S
C1258      C1259   1.394       .  A
C1259      C1260   1.378       .  A
C1259     Br1266   1.894   1_655  S
C1260      C1261   1.399       .  A
C1260     Br1265   1.887       .  S
C1261      C1262   1.431       .  A
C1262     Br1263   1.914       .  S
C1267      C1268   1.392       .  A
C1267      C1272   1.375       .  A
C1267     Br1274   1.915       .  S
C1268      C1269   1.415       .  A
C1269      C1270   1.414       .  A
C1269     Br1276   1.932       .  S
C1270      C1271   1.417       .  A
C1270     Br1275   1.928       .  S
C1271      C1272   1.412       .  A
C1272     Br1273   1.935       .  S
C1277      C1278   1.413       .  A
C1277      C1282   1.421       .  A
C1277     Br1284   1.930       .  S
C1278      C1279   1.407       .  A
C1279      C1280   1.397       .  A
C1279     Br1286   1.909       .  S
C1280      C1281   1.424       .  A
C1280     Br1285   1.944       .  S
C1281      C1282   1.424       .  A
C1282     Br1283   1.932       .  S
C1287      C1288   1.407       .  A
C1287      C1292   1.413       .  A
C1287     Br1294   1.924       .  S
C1288      C1289   1.407       .  A
C1289      C1290   1.408       .  A
C1289     Br1296   1.925   1_545  S
C1290      C1291   1.412       .  A
C1290     Br1295   1.911       .  S
C1291      C1292   1.413       .  A
C1292     Br1293   1.918       .  S
C1297      C1298   1.397   1_565  A
C1297      C1302   1.412       .  A
C1297     Br1304   1.908   1_565  S
C1298      C1299   1.444   1_545  A
C1299      C1300   1.444       .  A
C1299     Br1306   1.916   1_565  S
C1300      C1301   1.425       .  A
C1300     Br1305   1.913       .  S
C1301      C1302   1.414       .  A
C1302     Br1303   1.882       .  S
C1307      C1308   1.418       .  A
C1307      C1312   1.419       .  A
C1307     Br1314   1.905       .  S
C1308      C1309   1.415       .  A
C1309      C1310   1.414       .  A
C1309     Br1316   1.916       .  S
C1310      C1311   1.405       .  A
C1310     Br1315   1.926       .  S
C1311      C1312   1.411       .  A
C1312     Br1313   1.918   1_545  S
C1317      C1318   1.422       .  A
C1317      C1322   1.418       .  A
C1317     Br1324   1.924       .  S
C1318      C1319   1.405       .  A
C1319      C1320   1.378       .  A
C1319     Br1326   1.915       .  S
C1320      C1321   1.394       .  A
C1320     Br1325   1.905       .  S
C1321      C1322   1.416       .  A
C1322     Br1323   1.944       .  S
C1327      C1328   1.413       .  A
C1327      C1332   1.412       .  A
C1327     Br1334   1.925       .  S
C1328      C1329   1.413       .  A
C1329      C1330   1.406       .  A
C1329     Br1336   1.917       .  S
C1330      C1331   1.402       .  A
C1330     Br1335   1.917       .  S
C1331      C1332   1.412       .  A
C1332     Br1333   1.914       .  S
C1337      C1338   1.403       .  A
C1337      C1342   1.397       .  A
C1337     Br1344   1.929       .  S
C1338      C1339   1.418       .  A
C1339      C1340   1.422       .  A
C1339     Br1346   1.927       .  S
C1340      C1341   1.422       .  A
C1340     Br1345   1.945       .  S
C1341      C1342   1.416       .  A
C1342     Br1343   1.910       .  S
C1347      C1348   1.425   1_455  A
C1347      C1352   1.423       .  A
C1347     Br1354   1.902   1_455  S
C1348      C1349   1.418   1_655  A
C1349      C1350   1.442       .  A
C1349     Br1356   1.924   1_455  S
C1350      C1351   1.442       .  A
C1350     Br1355   1.917       .  S
C1351      C1352   1.415       .  A
C1352     Br1353   1.933       .  S
C1357      C1358   1.407       .  A
C1357      C1362   1.422       .  A
C1357     Br1364   1.921       .  S
C1358      C1359   1.376       .  A
C1359      C1360   1.384       .  A
C1359     Br1366   1.916       .  S
C1360      C1361   1.409       .  A
C1360     Br1365   1.870       .  S
C1361      C1362   1.426       .  A
C1362     Br1363   1.912       .  S
C1367      C1368   1.430       .  A
C1367      C1372   1.392       .  A
C1367     Br1374   1.907       .  S
C1368      C1369   1.433       .  A
C1369      C1370   1.419       .  A
C1369     Br1376   1.916       .  S
C1370      C1371   1.400       .  A
C1370     Br1375   1.926       .  S
C1371      C1372   1.386       .  A
C1372     Br1373   1.925       .  S
C1377      C1378   1.401       .  A
C1377      C1382   1.389       .  A
C1377     Br1384   1.915       .  S
C1378      C1379   1.415       .  A
C1379      C1380   1.435       .  A
C1379     Br1386   1.921       .  S
C1380      C1381   1.431       .  A
C1380     Br1385   1.925       .  S
C1381      C1382   1.412       .  A
C1382     Br1383   1.903       .  S
C1387      C1388   1.409       .  A
C1387      C1392   1.402       .  A
C1387     Br1394   1.940       .  S
C1388      C1389   1.421       .  A
C1389      C1390   1.414       .  A
C1389     Br1396   1.929       .  S
C1390      C1391   1.410       .  A
C1390     Br1395   1.929       .  S
C1391      C1392   1.427       .  A
C1392     Br1393   1.934       .  S
C1397      C1398   1.425       .  A
C1397      C1402   1.403   1_545  A
C1397     Br1404   1.918       .  S
C1398      C1399   1.449   1_545  A
C1399      C1400   1.447       .  A
C1399     Br1406   1.913   1_565  S
C1400      C1401   1.433       .  A
C1400     Br1405   1.934       .  S
C1401      C1402   1.422       .  A
C1402     Br1403   1.900       .  S
C1407      C1408   1.399   1_455  A
C1407      C1412   1.382       .  A
C1407     Br1414   1.841   1_455  S
C1408      C1409   1.439   1_655  A
C1409      C1410   1.459       .  A
C1409     Br1416   1.915   1_455  S
C1410      C1411   1.437       .  A
C1410     Br1415   1.919       .  S
C1411      C1412   1.395       .  A
C1412     Br1413   1.897       .  S
