geometry optimzed in LAMMPS
_audit_creation_date              2020-11-30 
_audit_creation_method            'lammps2cif' 
_symmetry_space_group_name_H-M    'P1' 
_symmetry_Int_Tables_number       1 
_symmetry_cell_setting            triclinic 
loop_ 
_symmetry_equiv_pos_as_xyz 
  x,y,z 
_cell_length_a                    38.92726544 
_cell_length_b                    38.912703662574984 
_cell_length_c                    38.94213442404374 
_cell_angle_alpha                 90.22096155740223 
_cell_angle_beta                  90.11002872721811 
_cell_angle_gamma                 90.13120191141238 
loop_ 
_atom_site_label 
_atom_site_type_symbol 
_atom_site_fract_x 
_atom_site_fract_y 
_atom_site_fract_z 
_atom_site_charge 
Zn1        Zn  0.97169304  0.03398960  0.02316300     1.49700
Zn2        Zn  0.02926367  0.97542339  0.02572489     1.49400
Zn3        Zn  0.97374024  0.97675657  0.96453900     1.49100
Zn4        Zn  0.03293817  0.03349727  0.96818490     1.49500
O5          O  0.00192501  0.00490688  0.99543158    -1.83800
O6          O  0.97765472  0.02453611  0.07363029    -0.74500
O7          O  0.02021027  0.92543226  0.01572996    -0.74300
O8          O  0.92303927  0.98653973  0.96992549    -0.73800
O9          O  0.01791886  0.98426071  0.07554229    -0.74500
O10         O  0.92207357  0.02534373  0.01184227    -0.74100
O11         O  0.98140015  0.92655411  0.97385154    -0.74700
O12         O  0.02645807  0.02546322  0.91721145    -0.74100
O13         O  0.08011190  0.98345910  0.01952191    -0.74800
O14         O  0.98560261  0.98564856  0.91514245    -0.74200
O15         O  0.08241787  0.02397414  0.97964028    -0.74700
O16         O  0.02455886  0.08349513  0.97780316    -0.74600
O17         O  0.98136778  0.08431866  0.01501990    -0.74400
C18         C  0.99691613  0.00432931  0.09060043     0.77400
C19         C  0.00052120  0.90997293  0.99454242     0.77900
C20         C  0.90656198  0.00626929  0.99016094     0.76900
C21         C  0.00664732  0.00564692  0.90012208     0.77200
C22         C  0.09729706  0.00356875  0.00034394     0.78400
C23         C  0.00335976  0.09990870  0.99652116     0.77400
N24         N  0.02418874  0.97756206  0.53241348    -0.36300
N25         N  0.01627586  0.97654320  0.45870231    -0.56900
N26         N  0.01908011  0.05262515  0.45814305    -0.36300
N27         N  0.02249422  0.05367735  0.53200333    -0.56900
C28         C  0.01611682  0.94392082  0.52744845     0.27300
C29         C  0.01981041  0.98453648  0.56619771     0.27300
C30         C  0.01155015  0.04587836  0.42487480     0.27300
C31         C  0.01301544  0.08654645  0.46379320     0.27300
C32         C  0.02085569  0.94241671  0.46380560     0.35900
C33         C  0.02021296  0.98195343  0.42465986     0.35900
C34         C  0.02930275  0.04835531  0.56561803     0.35900
C35         C  0.02587703  0.08790406  0.52651549     0.35900
C36         C  0.00687493  0.92939752  0.55854850    -0.21600
C37         C  0.00932923  0.95490976  0.58295407    -0.21600
C38         C  0.00093922  0.07591003  0.40900642    -0.21600
C39         C  0.00187492  0.10151422  0.43350082    -0.21600
C40         C  0.02736911  0.92607753  0.43284898    -0.22700
C41         C  0.02698984  0.95106626  0.40808766    -0.22700
C42         C  0.03682026  0.07939054  0.58162083    -0.22700
C43         C  0.03447182  0.10440432  0.55694481    -0.22700
C44         C  0.01794127  0.92561490  0.49587537    -0.18000
C45         C  0.02620115  0.01644559  0.58278947    -0.18000
C46         C  0.01907786  0.10471463  0.49496911    -0.18000
C47         C  0.01597124  0.01391371  0.40783850    -0.18000
H48         H  0.99904870  0.90313280  0.56324626     0.14900
H49         H  0.00382226  0.95196501  0.61001850     0.14900
H50         H  0.99355176  0.07913499  0.38240426     0.14900
H51         H  0.99546036  0.12820470  0.42926350     0.14900
H52         H  0.03203834  0.89900307  0.42851586     0.13200
H53         H  0.03109518  0.94688297  0.38091217     0.13200
H54         H  0.04272181  0.08369725  0.60846780     0.13200
H55         H  0.03821504  0.13166138  0.56113130     0.13200
H56         H  0.03540060  0.99397024  0.51469580     0.26400
H57         H  0.03127822  0.03573822  0.47466457     0.26400
N58         N  0.46561014  0.99369241  0.05144973    -0.36300
N59         N  0.46507011  0.99157639  0.97560488    -0.56900
N60         N  0.53880629  0.99856693  0.97519902    -0.36300
N61         N  0.53970920  0.99651910  0.05094329    -0.56900
C62         C  0.43262247  0.98450568  0.04532900     0.27300
C63         C  0.47208790  0.98780292  0.08517484     0.27300
C64         C  0.53311008  0.99129576  0.94154821     0.27300
C65         C  0.57262623  0.99351882  0.98142547     0.27300
C66         C  0.43090632  0.99322414  0.98154931     0.35900
C67         C  0.46942986  0.99653073  0.94146406     0.35900
C68         C  0.53439183  0.00201663  0.08490514     0.35900
C69         C  0.57287284  0.00480322  0.04473080     0.35900
C70         C  0.41777265  0.97316077  0.07561743    -0.21600
C71         C  0.44267464  0.97508872  0.10067460    -0.21600
C72         C  0.56382138  0.98199158  0.92617634    -0.21600
C73         C  0.58861247  0.98300302  0.95135275    -0.21600
C74         C  0.41345900  0.99871850  0.95097857    -0.22700
C75         C  0.43780677  0.00074830  0.92562848    -0.22700
C76         C  0.56429554  0.01382063  0.10029225    -0.22700
C77         C  0.58861004  0.01569512  0.07487665    -0.22700
C78         C  0.41488310  0.98775690  0.01369371    -0.18000
C79         C  0.50344330  0.99472749  0.10257264    -0.18000
C80         C  0.58989941  0.00024587  0.01287717    -0.18000
C81         C  0.50130677  0.99462743  0.92404797    -0.18000
H82         H  0.39163112  0.96442027  0.07933726     0.14900
H83         H  0.43938040  0.96798827  0.12730717     0.14900
H84         H  0.56815553  0.97523625  0.89957783     0.14900
H85         H  0.61550149  0.97703847  0.94771276     0.14900
H86         H  0.38597017  0.00056449  0.94720849     0.13200
H87         H  0.43263858  0.00424447  0.89856088     0.13200
H88         H  0.56822096  0.02035610  0.12705426     0.13200
H89         H  0.61497764  0.02390345  0.07831172     0.13200
H90         H  0.48148397  0.00653588  0.03435929     0.26400
H91         H  0.52161944  0.01011431  0.99199872     0.26400
N92         N  0.96263294  0.54280753  0.00099685    -0.36300
N93         N  0.95919545  0.46910699  0.99466260    -0.56900
N94         N  0.03519089  0.46614679  0.99218819    -0.36300
N95         N  0.03834724  0.54018513  0.99420451    -0.56900
C96         C  0.92831929  0.53879848  0.99619253     0.27300
C97         C  0.97005713  0.57643875  0.99657182     0.27300
C98         C  0.02690738  0.43332660  0.98407899     0.27300
C99         C  0.06878554  0.47087329  0.98419009     0.27300
C100        C  0.92577060  0.47523981  0.00218559     0.35900
C101        C  0.96392712  0.43486768  0.99776949     0.35900
C102        C  0.03432359  0.57396480  0.00139211     0.35900
C103        C  0.07252297  0.53375056  0.99587396     0.35900
C104        C  0.91374431  0.57053947  0.98931940    -0.21600
C105        C  0.94000581  0.59421451  0.98954281    -0.21600
C106        C  0.05570986  0.41688084  0.97101042    -0.21600
C107        C  0.08207259  0.44049196  0.97116461    -0.21600
C108        C  0.90914986  0.44470024  0.00973055    -0.22700
C109        C  0.93333002  0.41924839  0.00735894    -0.22700
C110        C  0.06611677  0.58913769  0.00709387    -0.22700
C111        C  0.09023640  0.56370115  0.00372920    -0.22700
C112        C  0.90955807  0.50767640  0.99975200    -0.18000
C113        C  0.00275960  0.59200382  0.00072492    -0.18000
C114        C  0.08811188  0.50151139  0.98911771    -0.18000
C115        C  0.99473686  0.41708371  0.98997962    -0.18000
H116        H  0.88691010  0.57633838  0.98508406     0.14900
H117        H  0.93714556  0.62153433  0.98532839     0.14900
H118        H  0.05763998  0.39048744  0.96236707     0.14900
H119        H  0.10806434  0.43578301  0.96254904     0.14900
H120        H  0.88237894  0.44093850  0.01609725     0.13200
H121        H  0.92865583  0.39222369  0.01186352     0.13200
H122        H  0.07147140  0.61585756  0.01282616     0.13200
H123        H  0.11769142  0.56699821  0.00668454     0.13200
H124        H  0.97963495  0.52448849  0.01047380     0.26400
H125        H  0.01961356  0.48311122  0.00585230     0.26400
N126        N  0.95139846  0.55360129  0.49212379    -0.36300
N127        N  0.02495525  0.55285959  0.48920480    -0.56900
N128        N  0.02360819  0.47661373  0.49164516    -0.36300
N129        N  0.94989550  0.47719290  0.49035852    -0.56900
C130        C  0.95720894  0.58746106  0.48595257     0.27300
C131        C  0.91750962  0.54765879  0.48736866     0.27300
C132        C  0.05665117  0.48291486  0.48302272     0.27300
C133        C  0.01711331  0.44310378  0.48417550     0.27300
C134        C  0.02066859  0.58714429  0.49367404     0.35900
C135        C  0.05874798  0.54644113  0.49368120     0.35900
C136        C  0.91656267  0.48384578  0.49736879     0.35900
C137        C  0.95467729  0.44316464  0.49608719     0.35900
C138        C  0.92638792  0.60324182  0.47771743    -0.21600
C139        C  0.90145294  0.57817486  0.47839796    -0.21600
C140        C  0.07129945  0.45311030  0.46999254    -0.21600
C141        C  0.04637701  0.42803815  0.47071803    -0.21600
C142        C  0.05203801  0.60261803  0.50052143    -0.22700
C143        C  0.07605411  0.57684499  0.50090635    -0.22700
C144        C  0.90008780  0.45383222  0.50735227    -0.22700
C145        C  0.92421207  0.42811037  0.50652832    -0.22700
C146        C  0.98916390  0.60484290  0.48949044    -0.18000
C147        C  0.90016442  0.51610894  0.49323955    -0.18000
C148        C  0.98593468  0.42539558  0.49057591    -0.18000
C149        C  0.07470403  0.51413802  0.48848519    -0.18000
H150        H  0.92203026  0.63012196  0.47228509     0.14900
H151        H  0.87439965  0.58218361  0.47340368     0.14900
H152        H  0.09736351  0.44970774  0.46098885     0.14900
H153        H  0.04949386  0.40169087  0.46230206     0.14900
H154        H  0.05727784  0.62964924  0.50452611     0.13200
H155        H  0.10329717  0.58028932  0.50534259     0.13200
H156        H  0.87340766  0.45075076  0.51450376     0.13200
H157        H  0.91982014  0.40143134  0.51296078     0.13200
H158        H  0.96851672  0.53617055  0.50263165     0.26400
H159        H  0.00790274  0.49318024  0.50548494     0.26400
Zn160      Zn  0.45785918  0.52262373  0.47233332     1.49700
Zn161      Zn  0.45912455  0.46292626  0.52821830     1.49400
Zn162      Zn  0.51542229  0.46464056  0.46865720     1.49100
Zn163      Zn  0.51751180  0.52133665  0.52839790     1.49500
O164        O  0.48753676  0.49282968  0.49948897    -1.83800
O165        O  0.40820054  0.51090984  0.47927690    -0.74500
O166        O  0.47112615  0.41286458  0.52074814    -0.74300
O167        O  0.50483109  0.47479806  0.41916827    -0.73800
O168        O  0.40860400  0.46885946  0.51758872    -0.74500
O169        O  0.46748121  0.51772781  0.42184614    -0.74100
O170        O  0.50738536  0.41424933  0.47677241    -0.74700
O171        O  0.56740167  0.51326538  0.51720671    -0.74100
O172        O  0.46623717  0.47407129  0.57831062    -0.74800
O173        O  0.56593511  0.47391128  0.47578795    -0.74200
O174        O  0.51002179  0.51084778  0.57840986    -0.74700
O175        O  0.50728103  0.57201507  0.52258455    -0.74600
O176        O  0.46401597  0.57223507  0.48542026    -0.74400
C177        C  0.39236853  0.48917401  0.49779272     0.77400
C178        C  0.48995843  0.39755286  0.49878029     0.77900
C179        C  0.48602217  0.49711316  0.40450398     0.76900
C180        C  0.58270686  0.49379812  0.49578807     0.77200
C181        C  0.48795438  0.49273401  0.59433989     0.78400
C182        C  0.48474422  0.58813991  0.50521567     0.77400
N183        N  0.46320518  0.49145555  0.96043253    -0.36300
N184        N  0.53921428  0.49294469  0.96368268    -0.56900
N185        N  0.53602149  0.49423658  0.03765820    -0.36300
N186        N  0.46025817  0.48819090  0.03443252    -0.56900
C187        C  0.47136182  0.48506343  0.92723326     0.27300
C188        C  0.42962797  0.48290425  0.96470531     0.27300
C189        C  0.57036022  0.48982954  0.03349042     0.27300
C190        C  0.52868069  0.48789621  0.07097445     0.27300
C191        C  0.53458314  0.49784237  0.92963640     0.35900
C192        C  0.57290237  0.49906716  0.97025730     0.35900
C193        C  0.42615089  0.49105870  0.02802708     0.35900
C194        C  0.46444240  0.49318707  0.06857107     0.35900
C195        C  0.44252747  0.47259067  0.91018054    -0.21600
C196        C  0.41627095  0.47130367  0.93374872    -0.21600
C197        C  0.58499995  0.48136713  0.06483663    -0.21600
C198        C  0.55876850  0.48002921  0.08837843    -0.21600
C199        C  0.56551715  0.50712318  0.91457550    -0.22700
C200        C  0.58977965  0.50745719  0.94014691    -0.22700
C201        C  0.40865716  0.49770716  0.05828629    -0.22700
C202        C  0.43284805  0.49893717  0.08393202    -0.22700
C203        C  0.50358225  0.49159655  0.91137817    -0.18000
C204        C  0.41039425  0.48619510  0.99550158    -0.18000
C205        C  0.49593704  0.49057186  0.08663502    -0.18000
C206        C  0.58906470  0.49497288  0.00262842    -0.18000
H207        H  0.44052989  0.46513015  0.88344991     0.14900
H208        H  0.39031503  0.46263137  0.92865187     0.14900
H209        H  0.61184073  0.47693999  0.07046349     0.14900
H210        H  0.56164911  0.47420100  0.11538456     0.14900
H211        H  0.57035850  0.51262281  0.88780293     0.13200
H212        H  0.61679249  0.51301127  0.93673561     0.13200
H213        H  0.38130299  0.50122742  0.06164515     0.13200
H214        H  0.42771260  0.50341469  0.11088644     0.13200
H215        H  0.47872056  0.50425061  0.97801524     0.26400
H216        H  0.51901894  0.50433032  0.01989575     0.26400
N217        N  0.50109082  0.03122670  0.47802668    -0.36300
N218        N  0.50391689  0.95721300  0.47504404    -0.56900
N219        N  0.50399157  0.95519501  0.55089374    -0.36300
N220        N  0.50535717  0.02910568  0.55373755    -0.56900
C221        C  0.50792905  0.02631003  0.44419063     0.27300
C222        C  0.50912264  0.06425536  0.48563874     0.27300
C223        C  0.50971683  0.92175558  0.54328271     0.27300
C224        C  0.51123683  0.95977052  0.58472921     0.27300
C225        C  0.49752907  0.96343973  0.44141550     0.35900
C226        C  0.49821843  0.92329607  0.47994289     0.35900
C227        C  0.49991284  0.06306917  0.54920535     0.35900
C228        C  0.50159097  0.02294210  0.58774681     0.35900
C229        C  0.52036762  0.05657074  0.43022463    -0.21600
C230        C  0.52114199  0.08047266  0.45632603    -0.21600
C231        C  0.52043433  0.90476666  0.57265175    -0.21600
C232        C  0.52120455  0.92861920  0.59876150    -0.21600
C233        C  0.48796014  0.93331295  0.42488762    -0.22700
C234        C  0.48848222  0.90789139  0.44924313    -0.22700
C235        C  0.49270887  0.07855547  0.58052639    -0.22700
C236        C  0.49422175  0.05327349  0.60493379    -0.22700
C237        C  0.50181728  0.99569459  0.42522086    -0.18000
C238        C  0.50414984  0.08080462  0.51776978    -0.18000
C239        C  0.50696146  0.99072669  0.60369381    -0.18000
C240        C  0.50340413  0.90553563  0.51120614    -0.18000
H241        H  0.52813715  0.06098921  0.40393563     0.14900
H242        H  0.52957072  0.10687871  0.45393849     0.14900
H243        H  0.52657998  0.87778239  0.57520003     0.14900
H244        H  0.52785265  0.92324753  0.62516863     0.14900
H245        H  0.48133156  0.92992154  0.39808975     0.13200
H246        H  0.48243206  0.88107543  0.44481036     0.13200
H247        H  0.48751054  0.10541660  0.58550360     0.13200
H248        H  0.49062561  0.05702757  0.63222469     0.13200
H249        H  0.48804087  0.01438249  0.49405272     0.26400
H250        H  0.49212170  0.97267949  0.53474580     0.26400
C251        C  0.49168551  0.35959499  0.49865937    -0.02900
C252        C  0.50201108  0.34186228  0.46892904    -0.05500
C253        C  0.50326176  0.30598939  0.46852197    -0.20600
C254        C  0.49505242  0.28716305  0.49801565     0.25100
C255        C  0.48490856  0.30482920  0.52788220    -0.18200
C256        C  0.48302245  0.34072406  0.52810501    -0.08100
C257        C  0.49559354  0.24914537  0.49628835    -0.18400
C258        C  0.50354735  0.22934024  0.52335365    -0.23200
C259        C  0.50379980  0.19136667  0.52105155     0.27200
C260        C  0.52856449  0.17284022  0.53943671    -0.20000
C261        C  0.52918044  0.13696555  0.53780420    -0.09600
C262        C  0.50435678  0.11902581  0.51857698    -0.10200
C263        C  0.47934232  0.13751858  0.50044319    -0.03100
C264        C  0.47911808  0.17340919  0.50154869    -0.18200
H265        H  0.50860756  0.35571260  0.44578004     0.10900
H266        H  0.51084253  0.29288442  0.44514758     0.11000
H267        H  0.47763252  0.29095546  0.55079241     0.10600
H268        H  0.47495760  0.35372362  0.55136194     0.11700
H269        H  0.49086448  0.23713344  0.47147986     0.11800
H270        H  0.51188997  0.24120043  0.54726136     0.13700
H271        H  0.54769273  0.18618909  0.55473755     0.10200
H272        H  0.54876827  0.12310814  0.55183354     0.12300
H273        H  0.45985612  0.12409304  0.48567123     0.08900
H274        H  0.45922712  0.18705300  0.48776177     0.11700
C275        C  0.48247380  0.62608708  0.50787181    -0.02900
C276        C  0.45528810  0.64377052  0.49200346    -0.05500
C277        C  0.45345486  0.67960136  0.49365464    -0.20600
C278        C  0.47898721  0.69858511  0.51070300     0.25100
C279        C  0.50573972  0.68095483  0.52735671    -0.18200
C280        C  0.50741364  0.64506269  0.52600390    -0.03100
C281        C  0.47677481  0.73665104  0.51105750    -0.18400
C282        C  0.50481385  0.75694689  0.51150983    -0.23200
C283        C  0.50309321  0.79501368  0.51067771     0.27200
C284        C  0.53038838  0.81335509  0.49591004    -0.20000
C285        C  0.53019289  0.84926177  0.49551881    -0.09600
C286        C  0.50289361  0.86740416  0.51035188    -0.10200
C287        C  0.47564906  0.84925144  0.52535658    -0.03100
C288        C  0.47566569  0.81331015  0.52548008    -0.18200
H289        H  0.43541951  0.62993542  0.47816464     0.10900
H290        H  0.43237697  0.69258311  0.48099371     0.11000
H291        H  0.52522434  0.69480067  0.54169093     0.10600
H292        H  0.52842714  0.63221793  0.53888212     0.11700
H293        H  0.45150772  0.74814541  0.50847388     0.11800
H294        H  0.53011860  0.74528993  0.51044377     0.13700
H295        H  0.55188502  0.79983045  0.48458021     0.10200
H296        H  0.55150684  0.86295964  0.48404936     0.12300
H297        H  0.45457840  0.86297764  0.53722711     0.08900
H298        H  0.45468682  0.79999054  0.53789797     0.11700
C299        C  0.48592118  0.49929408  0.36658065    -0.02900
C300        C  0.46862398  0.52614016  0.34984913    -0.05500
C301        C  0.46936253  0.52870688  0.31408032    -0.20600
C302        C  0.48694773  0.50428333  0.29425724     0.25100
C303        C  0.50427815  0.47739582  0.31097457    -0.18200
C304        C  0.50369071  0.47491731  0.34673846    -0.08100
C305        C  0.48770607  0.50830984  0.25638750    -0.18400
C306        C  0.49187931  0.48164884  0.23468342    -0.23200
C307        C  0.49246344  0.48518787  0.19675678     0.27200
C308        C  0.48458818  0.45626302  0.17654279    -0.20000
C309        C  0.48537565  0.45817319  0.14076124    -0.09600
C310        C  0.49445333  0.48896526  0.12460821    -0.10200
C311        C  0.50276123  0.51787478  0.14454719    -0.03100
C312        C  0.50181173  0.51605749  0.18039165    -0.18200
H313        H  0.45480642  0.54541967  0.36439461     0.10900
H314        H  0.45604229  0.54979239  0.30182848     0.11000
H315        H  0.51899502  0.45866650  0.29666393     0.10600
H316        H  0.51741452  0.45402091  0.35884605     0.11700
H317        H  0.48293513  0.53378882  0.24622476     0.11800
H318        H  0.49323552  0.45577333  0.24490704     0.13700
H319        H  0.47767351  0.43212960  0.18849301     0.10200
H320        H  0.47916365  0.43559449  0.12560428     0.12300
H321        H  0.51016583  0.54171116  0.13230963     0.08900
H322        H  0.50911525  0.53858575  0.19504520     0.11700
C323        C  0.48737065  0.49361708  0.63226844    -0.02900
C324        C  0.45763672  0.48387741  0.65019298    -0.05500
C325        C  0.45685871  0.48525809  0.68603462    -0.20600
C326        C  0.48599379  0.49556361  0.70465689     0.25100
C327        C  0.51575516  0.50542098  0.68679467    -0.18200
C328        C  0.51633588  0.50466990  0.65090663    -0.08100
C329        C  0.48414444  0.49695468  0.74260035    -0.18400
C330        C  0.51120357  0.49006521  0.76293823    -0.23200
C331        C  0.50870186  0.49064695  0.80088645     0.27200
C332        C  0.52823226  0.46737472  0.82015208    -0.20000
C333        C  0.52607481  0.46719353  0.85597555    -0.09600
C334        C  0.50510992  0.49100607  0.87316912    -0.10200
C335        C  0.48602269  0.51469902  0.85394473    -0.03100
C336        C  0.48767344  0.51445716  0.81810493    -0.18200
H337        H  0.43480190  0.47564296  0.63649154     0.10900
H338        H  0.43354456  0.47791414  0.69929555     0.11000
H339        H  0.53833265  0.51433608  0.70047215     0.10600
H340        H  0.53952927  0.51252990  0.63774697     0.11700
H341        H  0.45919341  0.50171410  0.75411183     0.11800
H342        H  0.53523131  0.48166326  0.75154659     0.13700
H343        H  0.54478163  0.44898600  0.80741861     0.10200
H344        H  0.54099039  0.44870147  0.87037791     0.12300
H345        H  0.46998354  0.53347434  0.86676434     0.08900
H346        H  0.47300743  0.53331001  0.80395214     0.11700
C347        C  0.35435043  0.48800636  0.49650881    -0.02900
C348        C  0.33583464  0.46430617  0.51637216    -0.05500
C349        C  0.29991214  0.46427390  0.51598576    -0.20600
C350        C  0.28163504  0.48793140  0.49587095     0.25100
C351        C  0.30028433  0.51112266  0.47532291    -0.18200
C352        C  0.33614616  0.51117888  0.47576688    -0.08100
C353        C  0.24337648  0.48720975  0.49708394    -0.18400
C354        C  0.22310142  0.51179978  0.48367743    -0.23200
C355        C  0.18503676  0.51090631  0.48519302     0.27200
C356        C  0.16644311  0.52894250  0.46016988    -0.20000
C357        C  0.13062128  0.52974383  0.46104762    -0.09600
C358        C  0.11276959  0.51296755  0.48733728    -0.10200
C359        C  0.13115036  0.49495708  0.51249315    -0.03100
C360        C  0.16702962  0.49394331  0.51151647    -0.18200
H361        H  0.34907112  0.44595251  0.53247348     0.10900
H362        H  0.28633606  0.44589264  0.53181300     0.11000
H363        H  0.28772105  0.52922573  0.45858306     0.10600
H364        H  0.34961173  0.52960149  0.45990735     0.11700
H365        H  0.23155457  0.46541013  0.50976887     0.11800
H366        H  0.23428824  0.53346209  0.47037949     0.13700
H367        H  0.17970892  0.54235841  0.43977300     0.10200
H368        H  0.11676055  0.54361227  0.44135518     0.12300
H369        H  0.11766385  0.48199676  0.53303736     0.08900
H370        H  0.18045052  0.48063418  0.53182498     0.11700
C371        C  0.86214474  0.51703542  0.49487116    -0.02900
C372        C  0.84568510  0.53380813  0.52216549    -0.05500
C373        C  0.80986568  0.53512655  0.52346238    -0.20600
C374        C  0.78996449  0.51933932  0.49775025     0.25100
C375        C  0.80661988  0.50315297  0.47000594    -0.18200
C376        C  0.84244382  0.50195371  0.46867867    -0.08100
C377        C  0.75200449  0.52070804  0.50047226    -0.18400
C378        C  0.73128615  0.49634060  0.48702297    -0.23200
C379        C  0.69322805  0.49652229  0.49000860     0.27200
C380        C  0.67410951  0.47530663  0.46783702    -0.20000
C381        C  0.63828124  0.47430776  0.46971238    -0.09600
C382        C  0.62072000  0.49445275  0.49399804    -0.10200
C383        C  0.63984726  0.51535223  0.51652968    -0.03100
C384        C  0.67567832  0.51631052  0.51469376    -0.18200
H385        H  0.86063367  0.54585745  0.54239802     0.10900
H386        H  0.79764194  0.54808866  0.54484584     0.11000
H387        H  0.79217692  0.49188596  0.44903324     0.10600
H388        H  0.85487458  0.48947446  0.44713327     0.11700
H389        H  0.74127462  0.54196346  0.51492021     0.11800
H390        H  0.74257225  0.47501356  0.47302762     0.13700
H391        H  0.68694528  0.45956079  0.44880054     0.10200
H392        H  0.62435961  0.45781703  0.45203961     0.12300
H393        H  0.62713806  0.53092566  0.53577167     0.08900
H394        H  0.68925832  0.53216316  0.53308746     0.11700
C395        C  0.62754610  0.49484128  0.00413990    -0.02900
C396        C  0.64542481  0.46403942  0.00969077    -0.05500
C397        C  0.68138278  0.46387622  0.01187715    -0.20600
C398        C  0.70039655  0.49430933  0.00764313     0.25100
C399        C  0.68249360  0.52514546  0.00166577    -0.18200
C400        C  0.64643012  0.52540682  0.00019189    -0.08100
C401        C  0.73862440  0.49318073  0.01111874    -0.18400
C402        C  0.76009105  0.51390320  0.99352351    -0.23200
C403        C  0.79830610  0.51147385  0.99588910     0.27200
C404        C  0.81812966  0.51772188  0.96645925    -0.20000
C405        C  0.85405856  0.51594820  0.96773061    -0.09600
C406        C  0.87109927  0.50894306  0.99873162    -0.10200
C407        C  0.85140233  0.50325578  0.02841644    -0.03100
C408        C  0.81533505  0.50421643  0.02697554    -0.18200
H409        H  0.63143842  0.44015517  0.01274244     0.10900
H410        H  0.69444384  0.43981044  0.01666143     0.11000
H411        H  0.69624244  0.54918854  0.99898942     0.10600
H412        H  0.63318031  0.54948058  0.99603177     0.11700
H413        H  0.74949755  0.47311296  0.02709769     0.11800
H414        H  0.74944276  0.53163355  0.97486545     0.13700
H415        H  0.80572376  0.52357051  0.94226243     0.10200
H416        H  0.86869105  0.52037915  0.94452987     0.12300
H417        H  0.86399262  0.49801392  0.05265426     0.08900
H418        H  0.80083946  0.50000285  0.05028325     0.11700
C419        C  0.37191495  0.48370254  0.99373557    -0.02900
C420        C  0.35426762  0.45734240  0.01086526    -0.05500
C421        C  0.31824329  0.45607777  0.01064309    -0.20600
C422        C  0.29874036  0.48099596  0.99320099     0.25100
C423        C  0.31661893  0.50711479  0.97550600    -0.18200
C424        C  0.35270557  0.50833110  0.97576761    -0.08100
C425        C  0.26016961  0.47894409  0.99523873    -0.18400
C426        C  0.23802289  0.49985240  0.97845715    -0.23200
C427        C  0.19953046  0.49838636  0.98141680     0.27200
C428        C  0.17967777  0.51741110  0.95798369    -0.20000
C429        C  0.14372405  0.51807240  0.96018450    -0.09600
C430        C  0.12653249  0.49990862  0.98609897    -0.10200
C431        C  0.14611358  0.48067137  0.00947742    -0.03100
C432        C  0.18214484  0.47993706  0.00728678    -0.18200
H433        H  0.36844239  0.43794394  0.02481101     0.10900
H434        H  0.30552915  0.43561559  0.02451616     0.11000
H435        H  0.30320612  0.52709759  0.96183612     0.10600
H436        H  0.36571566  0.52894285  0.96240096     0.11700
H437        H  0.24981772  0.45881548  0.01136709     0.11800
H438        H  0.24815209  0.51901940  0.96110861     0.13700
H439        H  0.19206992  0.53201842  0.93786329     0.10200
H440        H  0.12924923  0.53303360  0.94178277     0.12300
H441        H  0.13345383  0.46658033  0.02979398     0.08900
H442        H  0.19601633  0.46545985  0.02640366     0.11700
C443        C  0.50880360  0.98934595  0.64208655    -0.02900
C444        C  0.54021380  0.98325627  0.65878949    -0.05500
C445        C  0.54172812  0.98070054  0.69466696    -0.20600
C446        C  0.51210929  0.98524597  0.71473179     0.25100
C447        C  0.48070201  0.99181875  0.69800732    -0.18200
C448        C  0.47906496  0.99359209  0.66204871    -0.08100
C449        C  0.51457597  0.98179231  0.75283520    -0.18400
C450        C  0.49525905  0.00036362  0.77480593    -0.23200
C451        C  0.49856646  0.99826053  0.81292447     0.27200
C452        C  0.49261241  0.02788098  0.83274719    -0.20000
C453        C  0.49433434  0.02675772  0.86866099    -0.09600
C454        C  0.50122755  0.99576342  0.88563923    -0.10200
C455        C  0.50686411  0.96595384  0.86594735    -0.03100
C456        C  0.50586567  0.96721839  0.82991000    -0.18200
H457        H  0.56348280  0.97996438  0.64394331     0.10900
H458        H  0.56619455  0.97545405  0.70683774     0.11000
H459        H  0.45725183  0.99474543  0.71260634     0.10600
H460        H  0.45454516  0.99815139  0.64971192     0.11700
H461        H  0.53443944  0.96512592  0.76305907     0.11800
H462        H  0.47786042  0.01956075  0.76454368     0.13700
H463        H  0.48673036  0.05204531  0.82035827     0.10200
H464        H  0.48974588  0.05000407  0.88332026     0.12300
H465        H  0.51181691  0.94168959  0.87853188     0.08900
H466        H  0.50983066  0.94376088  0.81543884     0.11700
C467        C  0.50431748  0.99271047  0.14104097    -0.02900
C468        C  0.52470130  0.96797090  0.15744138    -0.05500
C469        C  0.52564432  0.96583767  0.19335751    -0.20600
C470        C  0.50633225  0.98839075  0.21400968     0.25100
C471        C  0.48565951  0.01311324  0.19742254    -0.18200
C472        C  0.48475059  0.01520477  0.16139965    -0.08100
C473        C  0.50853442  0.98457093  0.25237463    -0.18400
C474        C  0.49460179  0.00643516  0.27560229    -0.23200
C475        C  0.49706570  0.00231222  0.31385820     0.27200
C476        C  0.47408932  0.02077398  0.33476119    -0.20000
C477        C  0.47556639  0.01842555  0.37065257    -0.09600
C478        C  0.50026112  0.99770210  0.38674409    -0.10200
C479        C  0.52357036  0.97945534  0.36605527    -0.03100
C480        C  0.52205601  0.98170132  0.33006185    -0.18200
H481        H  0.53986793  0.95018398  0.14234650     0.10900
H482        H  0.54168708  0.94641484  0.20508103     0.11000
H483        H  0.46986985  0.03078880  0.21181086     0.10600
H484        H  0.46872991  0.03443062  0.14933570     0.11700
H485        H  0.52240610  0.96233951  0.26168529     0.11800
H486        H  0.48008162  0.02834658  0.26663246     0.13700
H487        H  0.45474155  0.03706755  0.32324583     0.10200
H488        H  0.45736708  0.03284225  0.38596834     0.12300
H489        H  0.54317150  0.96367242  0.37783968     0.08900
H490        H  0.54096721  0.96779409  0.31527124     0.11700
C491        C  0.01598023  0.88705627  0.49651439    -0.02900
C492        C  0.04070286  0.86786756  0.51438501    -0.05500
C493        C  0.03847332  0.83192549  0.51580002    -0.20600
C494        C  0.01173307  0.81409422  0.49908086     0.25100
C495        C  0.98695967  0.83335666  0.48106090    -0.18200
C496        C  0.98909873  0.86939501  0.47984218    -0.08100
C497        C  0.01002189  0.77574363  0.50240478    -0.18400
C498        C  0.99288241  0.75466693  0.48056952    -0.23200
C499        C  0.99213954  0.71627719  0.48380540     0.27200
C500        C  0.98546847  0.69617669  0.45442230    -0.20000
C501        C  0.98464447  0.66017395  0.45624873    -0.09600
C502        C  0.98979266  0.64334099  0.48767780    -0.10200
C503        C  0.99570681  0.66329474  0.51726556    -0.03100
C504        C  0.99696095  0.69932703  0.51539706    -0.18200
H505        H  0.06167127  0.88080182  0.52745323     0.10900
H506        H  0.05782293  0.81794917  0.53004304     0.11000
H507        H  0.96544407  0.82087449  0.46856213     0.10600
H508        H  0.96950441  0.88360976  0.46619179     0.11700
H509        H  0.02500989  0.76440843  0.52295600     0.11800
H510        H  0.98033515  0.76560960  0.45825546     0.13700
H511        H  0.98127515  0.70838091  0.42982023     0.10200
H512        H  0.97991256  0.64536587  0.43310568     0.12300
H513        H  0.99944722  0.65089439  0.54183634     0.08900
H514        H  0.00112367  0.71373686  0.53884355     0.11700
C515        C  0.98618404  0.38673197  0.49044518    -0.02900
C516        C  0.96699150  0.36801405  0.46613579    -0.05500
C517        C  0.96810866  0.33193382  0.46542643    -0.20600
C518        C  0.98870647  0.31354177  0.48871029     0.25100
C519        C  0.00773297  0.33233888  0.51327646    -0.18200
C520        C  0.00649406  0.36845586  0.51405237    -0.08100
C521        C  0.98858663  0.27495046  0.48726089    -0.18400
C522        C  0.01453961  0.25490821  0.49877703    -0.23200
C523        C  0.01472621  0.21635325  0.49656356     0.27200
C524        C  0.04640278  0.19896268  0.49669506    -0.20000
C525        C  0.04780500  0.16291158  0.49556508    -0.09600
C526        C  0.01751876  0.14325177  0.49479893    -0.10200
C527        C  0.98578547  0.16041837  0.49493620    -0.03100
C528        C  0.98434730  0.19653165  0.49573990    -0.18200
H529        H  0.95131675  0.38139252  0.44749577     0.10900
H530        H  0.95302115  0.31830655  0.44632624     0.11000
H531        H  0.02316777  0.31928936  0.53229294     0.10600
H532        H  0.02139361  0.38224226  0.53318209     0.11700
H533        H  0.96690823  0.26278465  0.47450042     0.11800
H534        H  0.03757258  0.26718115  0.50874671     0.13700
H535        H  0.07023343  0.21336528  0.49760024     0.10200
H536        H  0.07256550  0.15027566  0.49567791     0.12300
H537        H  0.96209063  0.14578032  0.49473727     0.08900
H538        H  0.95942652  0.20873637  0.49655647     0.11700
C539        C  0.99981755  0.87196289  0.99380144    -0.02900
C540        C  0.97535923  0.85453507  0.97364432    -0.05500
C541        C  0.97477030  0.81870922  0.97247927    -0.20600
C542        C  0.99841174  0.79943645  0.99154457     0.25100
C543        C  0.02310181  0.81677925  0.01163143    -0.18200
C544        C  0.02369573  0.85271441  0.01281639    -0.08100
C545        C  0.99722543  0.76145334  0.98851542    -0.18400
C546        C  0.00956706  0.73994337  0.01251290    -0.23200
C547        C  0.00752612  0.70201335  0.00884938     0.27200
C548        C  0.00655318  0.68163654  0.03851284    -0.20000
C549        C  0.00462831  0.64584043  0.03588660    -0.09600
C550        C  0.00412526  0.62993893  0.00353690    -0.10200
C551        C  0.00561851  0.65005606  0.97385166    -0.03100
C552        C  0.00735227  0.68581576  0.97642659    -0.18200
H553        H  0.95660269  0.86856792  0.95869685     0.10900
H554        H  0.95565458  0.80596989  0.95664394     0.11000
H555        H  0.04242074  0.80281711  0.02584927     0.10600
H556        H  0.04312028  0.86540741  0.02828637     0.11700
H557        H  0.98396929  0.75089766  0.96629051     0.11800
H558        H  0.01977329  0.75021892  0.03640066     0.13700
H559        H  0.00698599  0.69346954  0.06373534     0.10200
H560        H  0.00372641  0.63049079  0.05901217     0.12300
H561        H  0.00560647  0.63799205  0.94873736     0.08900
H562        H  0.00923544  0.70056222  0.95301541     0.11700
C563        C  0.00451885  0.13786949  0.99665598    -0.02900
C564        C  0.03394139  0.15509196  0.98483031    -0.05500
C565        C  0.03535967  0.19091084  0.98490852    -0.20600
C566        C  0.00716522  0.21025592  0.99601159     0.25100
C567        C  0.97763195  0.19318899  0.00787109    -0.18200
C568        C  0.97643098  0.15725209  0.00840918    -0.08100
C569        C  0.01004074  0.24813174  0.99622610    -0.18400
C570        C  0.98337877  0.26898610  0.98970574    -0.23200
C571        C  0.98738227  0.30680745  0.98916846     0.27200
C572        C  0.96823392  0.32624076  0.96571265    -0.20000
C573        C  0.97153824  0.36201519  0.96499528    -0.09600
C574        C  0.99327914  0.37891917  0.98847586    -0.10200
C575        C  0.01236517  0.35949218  0.01196073    -0.03100
C576        C  0.00956058  0.32374562  0.01225376    -0.18200
H577        H  0.05607920  0.14086669  0.97585665     0.10900
H578        H  0.05845686  0.20358848  0.97595015     0.11000
H579        H  0.95579676  0.20754140  0.01733698     0.10600
H580        H  0.95346386  0.14464878  0.01775459     0.11700
H581        H  0.03550817  0.25912837  0.99966184     0.11800
H582        H  0.95863313  0.25809806  0.98258642     0.13700
H583        H  0.95091717  0.31368850  0.94780289     0.10200
H584        H  0.95659552  0.37663412  0.94668753     0.12300
H585        H  0.02898096  0.37212003  0.03047118     0.08900
H586        H  0.02405971  0.30947196  0.03115492     0.11700
C587        C  0.62814640  0.00129158  0.01259045    -0.02900
C588        C  0.64701137  0.97774159  0.03220635    -0.05500
C589        C  0.68286781  0.97854491  0.03201172    -0.20600
C590        C  0.70055057  0.00228316  0.01155078     0.25100
C591        C  0.68171262  0.02587951  0.99180025    -0.18200
C592        C  0.64577051  0.02548322  0.99249092    -0.08100
C593        C  0.73858172  0.00255028  0.01252684    -0.18400
C594        C  0.75815631  0.01060253  0.98526706    -0.23200
C595        C  0.79620646  0.00949415  0.98678929     0.27200
C596        C  0.81487923  0.99956536  0.95760762    -0.20000
C597        C  0.85079750  0.99791551  0.95871238    -0.09600
C598        C  0.86863680  0.00711166  0.98879698    -0.10200
C599        C  0.84992397  0.01766410  0.01775567    -0.03100
C600        C  0.81410089  0.01870118  0.01684102    -0.18200
H601        H  0.63390073  0.95878484  0.04773787     0.10900
H602        H  0.69687683  0.96028420  0.04757953     0.11000
H603        H  0.69467729  0.04503053  0.97641949     0.10600
H604        H  0.63163778  0.04400628  0.97736003     0.11700
H605        H  0.75084360  0.99360056  0.03591958     0.11800
H606        H  0.74607213  0.01601915  0.96071593     0.13700
H607        H  0.80161377  0.99262600  0.93409664     0.10200
H608        H  0.86462649  0.98995755  0.93593356     0.12300
H609        H  0.86300493  0.02491656  0.04127389     0.08900
H610        H  0.80048735  0.02726196  0.03951503     0.11700
C611        C  0.37690506  0.98529760  0.01433425    -0.02900
C612        C  0.36033487  0.95413331  0.00686921    -0.05500
C613        C  0.32444443  0.95219961  0.00711152    -0.20600
C614        C  0.30463202  0.98147408  0.01434889     0.25100
C615        C  0.32152478  0.01253933  0.02245217    -0.18200
C616        C  0.35735761  0.01438849  0.02232927    -0.08100
C617        C  0.26654399  0.97862937  0.01373722    -0.18400
C618        C  0.24595360  0.00563213  0.00725764    -0.23200
C619        C  0.20785627  0.00363535  0.00553554     0.27200
C620        C  0.19017435  0.03006115  0.98867877    -0.20000
C621        C  0.15436361  0.02986684  0.98678797    -0.09600
C622        C  0.13529471  0.00338970  0.00213471    -0.10200
C623        C  0.15288834  0.97701838  0.01932300    -0.03100
C624        C  0.18881068  0.97708974  0.02102272    -0.18200
H625        H  0.37521294  0.93142170  0.00083138     0.10900
H626        H  0.31210162  0.92791364  0.00116301     0.11000
H627        H  0.30727755  0.03535567  0.02936923     0.10600
H628        H  0.36991721  0.03852841  0.02842238     0.11700
H629        H  0.25550265  0.95319654  0.01669667     0.11800
H630        H  0.25748370  0.03027341  0.00114147     0.13700
H631        H  0.20415239  0.05097069  0.97680027     0.10200
H632        H  0.14160377  0.05069913  0.97356954     0.12300
H633        H  0.13889223  0.95630367  0.03148714     0.08900
H634        H  0.20133989  0.95671524  0.03504303     0.11700
C635        C  0.02795896  0.01652555  0.62087122    -0.02900
C636        C  0.05725644  0.00415236  0.63772740    -0.05500
C637        C  0.05864391  0.00365007  0.67362066    -0.20600
C638        C  0.03056597  0.01496537  0.69319409     0.25100
C639        C  0.00131202  0.02764022  0.67612122    -0.18200
C640        C  0.00006303  0.02837593  0.64025074    -0.08100
C641        C  0.03290488  0.01405601  0.73126846    -0.18400
C642        C  0.00519985  0.01022908  0.75153160    -0.23200
C643        C  0.00729749  0.00844295  0.78952219     0.27200
C644        C  0.98267189  0.98904723  0.80717145    -0.20000
C645        C  0.98296201  0.98760181  0.84299210    -0.09600
C646        C  0.00756172  0.00610630  0.86206366    -0.10200
C647        C  0.03226236  0.02563425  0.84438442    -0.03100
C648        C  0.03220310  0.02673608  0.80844251    -0.18200
H649        H  0.07898801  0.99491315  0.62305196     0.10900
H650        H  0.08152585  0.99400964  0.68614938     0.11000
H651        H  0.97959261  0.03749815  0.69034501     0.10600
H652        H  0.97732540  0.03810302  0.62753331     0.11700
H653        H  0.05833959  0.01454310  0.74278192     0.11800
H654        H  0.98013725  0.00617734  0.73989254     0.13700
H655        H  0.96313597  0.97488915  0.79315706     0.10200
H656        H  0.96351417  0.97237154  0.85574615     0.12300
H657        H  0.05145579  0.04031114  0.85831252     0.08900
H658        H  0.05105821  0.04259826  0.79560423     0.11700
C659        C  0.01594550  0.01381835  0.36977139    -0.02900
C660        C  0.04508423  0.02487231  0.35180953    -0.05500
C661        C  0.04582089  0.02318729  0.31595273    -0.20600
C662        C  0.01728005  0.01086005  0.29750449     0.25100
C663        C  0.98807907  0.99976089  0.31571096    -0.18200
C664        C  0.98744886  0.00129614  0.35155791    -0.08100
C665        C  0.01930377  0.00860617  0.25949235    -0.18400
C666        C  0.99140551  0.00962224  0.23903156    -0.23200
C667        C  0.99330208  0.00748706  0.20104657     0.27200
C668        C  0.96749065  0.02315945  0.18146007    -0.20000
C669        C  0.96851100  0.02196723  0.14561077    -0.09600
C670        C  0.99514213  0.00454400  0.12858522    -0.10200
C671        C  0.02040342  0.98788497  0.14823169    -0.03100
C672        C  0.01956858  0.98939813  0.18409946    -0.18200
H673        H  0.06738928  0.03430604  0.36562395     0.10900
H674        H  0.06871395  0.03155567  0.30257118     0.11000
H675        H  0.96603721  0.98905596  0.30249141     0.10600
H676        H  0.96495262  0.99227829  0.36518056     0.11700
H677        H  0.04470072  0.00768781  0.24804047     0.11800
H678        H  0.96630094  0.01410429  0.25025531     0.13700
H679        H  0.94673481  0.03683154  0.19394740     0.10200
H680        H  0.94845048  0.03475106  0.13123697     0.12300
H681        H  0.04108201  0.97398839  0.13589161     0.08900
H682        H  0.03924870  0.97603856  0.19842514     0.11700
loop_ 
_geom_bond_atom_site_label_1 
_geom_bond_atom_site_label_2 
_geom_bond_distance 
_geom_bond_site_symmetry_2 
_ccdc_geom_bond_type 
Zn1           O5   1.958   1_654  S
Zn1           O6   2.014       .  S
Zn1          O10   2.008       .  S
Zn1          O17   2.020       .  S
Zn2           O5   1.963   1_564  S
Zn2           O7   2.013       .  S
Zn2           O9   2.019       .  S
Zn2          O13   2.018       .  S
Zn3           O5   1.957   1_665  S
Zn3           O8   2.022       .  S
Zn3          O11   2.011       .  S
Zn3          O14   2.010       .  S
Zn4           O5   1.957       .  S
Zn4          O12   2.024       .  S
Zn4          O15   2.012       .  S
Zn4          O16   2.007       .  S
O6           C18   1.274       .  A
O7           C19   1.273   1_554  A
O8           C20   1.273   1_565  A
O9           C18   1.274   1_465  A
O10          C20   1.273   1_554  A
O11          C19   1.274   1_655  A
O12          C21   1.274       .  A
O13          C22   1.273   1_565  A
O14          C21   1.273   1_665  A
O15          C22   1.273   1_556  A
O16          C23   1.273       .  A
O17          C23   1.274   1_654  A
C18         C670   1.481       .  S
C19         C539   1.479   1_455  S
C20         C598   1.478       .  S
C21         C646   1.483       .  S
C22         C622   1.481       .  S
C23         C563   1.478       .  S
N24          C29   1.353       .  A
N24          C28   1.359       .  A
N24          H56   1.038       .  S
N25          C32   1.356       .  A
N25          C33   1.352       .  A
N26          C31   1.359       .  A
N26          C30   1.352       .  A
N26          H57   1.037       .  S
N27          C34   1.352       .  A
N27          C35   1.356       .  A
C28          C36   1.386       .  A
C28          C44   1.421       .  A
C29          C45   1.419   1_565  A
C29          C37   1.388       .  A
C30          C38   1.387       .  A
C30          C47   1.418       .  A
C31          C46   1.422       .  A
C31          C39   1.387       .  A
C32          C44   1.417       .  A
C32          C40   1.385       .  A
C33          C47   1.418   1_565  A
C33          C41   1.388       .  A
C34          C42   1.387       .  A
C34          C45   1.418       .  A
C35          C43   1.386       .  A
C35          C46   1.419       .  A
C36          C37   1.375       .  A
C36          H48   1.082   1_455  S
C37          H49   1.082       .  S
C38          C39   1.377       .  A
C38          H50   1.082   1_455  S
C39          H51   1.082   1_455  S
C40          C41   1.372       .  A
C40          H52   1.082       .  S
C41          H53   1.082       .  S
C42          C43   1.373       .  A
C42          H54   1.082       .  S
C43          H55   1.082       .  S
C44         C491   1.502       .  S
C45         C635   1.484       .  S
C46         C526   1.501       .  S
C47         C659   1.482       .  S
N58          C63   1.357       .  A
N58          C62   1.353       .  A
N58          H90   1.038   1_565  S
N59          C66   1.352       .  A
N59          C67   1.355       .  A
N60          C65   1.353       .  A
N60          C64   1.357       .  A
N60          H91   1.038   1_565  S
N61          C68   1.355   1_565  A
N61          C69   1.352   1_565  A
C62          C70   1.388       .  A
C62          C78   1.417       .  A
C63          C79   1.420       .  A
C63          C71   1.387       .  A
C64          C72   1.386       .  A
C64          C81   1.418       .  A
C65          C80   1.419   1_566  A
C65          C73   1.388       .  A
C66          C78   1.416   1_556  A
C66          C74   1.387       .  A
C67          C81   1.417       .  A
C67          C75   1.386   1_565  A
C68          C76   1.385       .  A
C68          C79   1.417   1_545  A
C69          C77   1.388       .  A
C69          C80   1.418       .  A
C70          C71   1.376       .  A
C70          H82   1.082       .  S
C71          H83   1.082       .  S
C72          C73   1.375       .  A
C72          H84   1.081       .  S
C73          H85   1.082       .  S
C74          C75   1.372   1_565  A
C74          H86   1.082   1_565  S
C75          H87   1.082       .  S
C76          C77   1.373       .  A
C76          H88   1.082       .  S
C77          H89   1.082       .  S
C78         C611   1.482       .  S
C79         C467   1.501       .  S
C80         C587   1.489       .  S
C81         C454   1.497       .  S
N92          C97   1.351   1_554  A
N92          C96   1.357   1_554  A
N92         H124   1.042       .  S
N93         C100   1.356   1_556  A
N93         C101   1.351       .  A
N94          C99   1.357       .  A
N94          C98   1.353       .  A
N94         H125   1.043   1_556  S
N95         C102   1.352   1_556  A
N95         C103   1.356       .  A
C96         C104   1.387       .  A
C96         C112   1.420       .  A
C97         C113   1.417   1_656  A
C97         C105   1.388       .  A
C98         C106   1.389       .  A
C98         C115   1.421   1_455  A
C99         C114   1.420       .  A
C99         C107   1.386       .  A
C100        C112   1.416   1_554  A
C100        C108   1.385       .  A
C101        C115   1.419       .  A
C101        C109   1.388   1_556  A
C102        C110   1.387       .  A
C102        C113   1.417       .  A
C103        C111   1.386   1_556  A
C103        C114   1.419       .  A
C104        C105   1.375       .  A
C104        H116   1.082       .  S
C105        H117   1.082       .  S
C106        C107   1.376       .  A
C106        H118   1.082       .  S
C107        H119   1.082       .  S
C108        C109   1.371       .  A
C108        H120   1.081       .  S
C109        H121   1.082       .  S
C110        C111   1.372       .  A
C110        H122   1.082       .  S
C111        H123   1.082       .  S
C112        C406   1.498       .  S
C113        C550   1.481       .  S
C114        C430   1.502       .  S
C115        C574   1.487       .  S
N126        C131   1.351       .  A
N126        C130   1.359       .  A
N126        H158   1.037       .  S
N127        C134   1.355       .  A
N127        C135   1.351       .  A
N128        C133   1.358       .  A
N128        C132   1.352       .  A
N128        H159   1.039       .  S
N129        C136   1.352       .  A
N129        C137   1.357       .  A
C130        C138   1.387       .  A
C130        C146   1.421       .  A
C131        C147   1.419       .  A
C131        C139   1.389       .  A
C132        C140   1.388       .  A
C132        C149   1.417       .  A
C133        C148   1.417   1_455  A
C133        C141   1.385       .  A
C134        C146   1.417   1_455  A
C134        C142   1.385       .  A
C135        C149   1.417       .  A
C135        C143   1.388       .  A
C136        C144   1.388       .  A
C136        C147   1.419       .  A
C137        C145   1.384       .  A
C137        C148   1.417       .  A
C138        C139   1.375       .  A
C138        H150   1.082       .  S
C139        H151   1.082       .  S
C140        C141   1.375       .  A
C140        H152   1.082       .  S
C141        H153   1.082       .  S
C142        C143   1.373       .  A
C142        H154   1.082       .  S
C143        H155   1.082       .  S
C144        C145   1.374       .  A
C144        H156   1.082       .  S
C145        H157   1.082       .  S
C146        C502   1.500       .  S
C147        C371   1.482       .  S
C148        C515   1.505       .  S
C149        C358   1.483       .  S
Zn160       O164   1.951       .  S
Zn160       O165   2.004       .  S
Zn160       O169   2.011       .  S
Zn160       O176   2.008       .  S
Zn161       O164   1.959       .  S
Zn161       O166   2.024       .  S
Zn161       O168   2.023       .  S
Zn161       O172   2.015       .  S
Zn162       O164   1.955       .  S
Zn162       O167   2.011       .  S
Zn162       O170   2.011       .  S
Zn162       O173   2.017       .  S
Zn163       O164   1.959       .  S
Zn163       O171   2.016       .  S
Zn163       O174   2.013       .  S
Zn163       O175   2.026       .  S
O165        C177   1.272       .  A
O166        C178   1.275       .  A
O167        C179   1.273       .  A
O168        C177   1.274       .  A
O169        C179   1.273       .  A
O170        C178   1.273       .  A
O171        C180   1.274       .  A
O172        C181   1.274       .  A
O173        C180   1.274       .  A
O174        C181   1.274       .  A
O175        C182   1.275       .  A
O176        C182   1.273       .  A
C177        C347   1.481       .  S
C178        C251   1.479       .  S
C179        C299   1.480       .  S
C180        C382   1.482       .  S
C181        C323   1.478       .  S
C182        C275   1.483       .  S
N183        C188   1.359       .  A
N183        C187   1.354       .  A
N183        H215   1.037       .  S
N184        C191   1.352       .  A
N184        C192   1.356       .  A
N185        C190   1.353       .  A
N185        C189   1.358       .  A
N185        H216   1.036       .  S
N186        C193   1.355       .  A
N186        C194   1.352       .  A
C187        C195   1.389       .  A
C187        C203   1.422       .  A
C188        C204   1.421       .  A
C188        C196   1.386       .  A
C189        C197   1.387       .  A
C189        C206   1.421       .  A
C190        C205   1.418       .  A
C190        C198   1.387       .  A
C191        C203   1.419       .  A
C191        C199   1.388       .  A
C192        C206   1.417   1_556  A
C192        C200   1.385       .  A
C193        C201   1.386       .  A
C193        C204   1.418   1_554  A
C194        C202   1.387       .  A
C194        C205   1.416       .  A
C195        C196   1.376       .  A
C195        H207   1.082       .  S
C196        H208   1.082       .  S
C197        C198   1.375       .  A
C197        H209   1.081       .  S
C198        H210   1.082       .  S
C199        C200   1.371       .  A
C199        H211   1.082       .  S
C200        H212   1.082       .  S
C201        C202   1.372       .  A
C201        H213   1.082       .  S
C202        H214   1.082       .  S
C203        C334   1.489       .  S
C204        C419   1.502       .  S
C205        C310   1.482       .  S
C206        C395   1.499       .  S
N217        C222   1.354       .  A
N217        C221   1.358       .  A
N217        H249   1.039       .  S
N218        C225   1.355       .  A
N218        C226   1.352       .  A
N219        C224   1.358       .  A
N219        C223   1.353       .  A
N219        H250   1.037       .  S
N220        C227   1.351       .  A
N220        C228   1.355       .  A
C221        C229   1.386       .  A
C221        C237   1.419   1_545  A
C222        C238   1.419       .  A
C222        C230   1.388       .  A
C223        C231   1.387       .  A
C223        C240   1.418       .  A
C224        C239   1.421       .  A
C224        C232   1.387       .  A
C225        C237   1.417       .  A
C225        C233   1.385       .  A
C226        C240   1.417       .  A
C226        C234   1.387       .  A
C227        C235   1.388       .  A
C227        C238   1.417       .  A
C228        C236   1.385       .  A
C228        C239   1.417   1_545  A
C229        C230   1.375       .  A
C229        H241   1.082       .  S
C230        H242   1.082       .  S
C231        C232   1.374       .  A
C231        H243   1.082       .  S
C232        H244   1.081       .  S
C233        C234   1.373       .  A
C233        H245   1.082       .  S
C234        H246   1.082       .  S
C235        C236   1.372       .  A
C235        H247   1.082       .  S
C236        H248   1.082       .  S
C237        C478   1.502       .  S
C238        C262   1.488       .  S
C239        C443   1.498       .  S
C240        C286   1.484       .  S
C251        C252   1.405       .  A
C251        C256   1.405       .  A
C252        C253   1.397       .  A
C252        H265   1.083       .  S
C253        C254   1.402       .  A
C253        H266   1.083       .  S
C254        C255   1.406       .  A
C254        C257   1.481       .  S
C255        C256   1.399       .  A
C255        H267   1.082       .  S
C256        H268   1.083       .  S
C257        C258   1.344       .  D
C257        H269   1.087       .  S
C258        C259   1.480       .  S
C258        H270   1.086       .  S
C259        C260   1.402       .  A
C259        C264   1.407       .  A
C260        C261   1.397       .  A
C260        H271   1.083       .  S
C261        C262   1.404       .  A
C261        H272   1.083       .  S
C262        C263   1.403       .  A
C263        C264   1.397       .  A
C263        H273   1.083       .  S
C264        H274   1.083       .  S
C275        C276   1.407       .  A
C275        C280   1.406       .  A
C276        C277   1.398       .  A
C276        H289   1.083       .  S
C277        C278   1.402       .  A
C277        H290   1.083       .  S
C278        C279   1.407       .  A
C278        C281   1.484       .  S
C279        C280   1.399       .  A
C279        H291   1.082       .  S
C280        H292   1.083       .  S
C281        C282   1.346       .  D
C281        H293   1.086       .  S
C282        C283   1.483       .  S
C282        H294   1.086       .  S
C283        C284   1.404       .  A
C283        C288   1.408       .  A
C284        C285   1.397       .  A
C284        H295   1.083       .  S
C285        C286   1.401       .  A
C285        H296   1.083       .  S
C286        C287   1.403       .  A
C287        C288   1.399       .  A
C287        H297   1.083       .  S
C288        H298   1.082       .  S
C299        C300   1.406       .  A
C299        C304   1.405       .  A
C300        C301   1.397       .  A
C300        H313   1.083       .  S
C301        C302   1.403       .  A
C301        H314   1.083       .  S
C302        C303   1.407       .  A
C302        C305   1.484       .  S
C303        C304   1.397       .  A
C303        H315   1.082       .  S
C304        H316   1.083       .  S
C305        C306   1.346       .  D
C305        H317   1.085       .  S
C306        C307   1.484       .  S
C306        H318   1.086       .  S
C307        C308   1.404       .  A
C307        C312   1.409       .  A
C308        C309   1.396       .  A
C308        H319   1.083       .  S
C309        C310   1.400       .  A
C309        H320   1.083       .  S
C310        C311   1.401       .  A
C311        C312   1.398       .  A
C311        H321   1.083       .  S
C312        H322   1.081       .  S
C323        C324   1.405       .  A
C323        C328   1.405       .  A
C324        C325   1.397       .  A
C324        H337   1.083       .  S
C325        C326   1.402       .  A
C325        H338   1.083       .  S
C326        C327   1.406       .  A
C326        C329   1.480       .  S
C327        C328   1.398       .  A
C327        H339   1.083       .  S
C328        H340   1.083       .  S
C329        C330   1.345       .  D
C329        H341   1.087       .  S
C330        C331   1.481       .  S
C330        H342   1.086       .  S
C331        C332   1.403       .  A
C331        C336   1.407       .  A
C332        C333   1.398       .  A
C332        H343   1.083       .  S
C333        C334   1.405       .  A
C333        H344   1.083       .  S
C334        C335   1.403       .  A
C335        C336   1.397       .  A
C335        H345   1.083       .  S
C336        H346   1.082       .  S
C347        C348   1.405       .  A
C347        C352   1.405       .  A
C348        C349   1.398       .  A
C348        H361   1.083       .  S
C349        C350   1.405       .  A
C349        H362   1.083       .  S
C350        C351   1.409       .  A
C350        C353   1.490       .  S
C351        C352   1.396       .  A
C351        H363   1.079       .  S
C352        H364   1.083       .  S
C353        C354   1.348       .  D
C353        H365   1.085       .  S
C354        C355   1.483       .  S
C354        H366   1.082       .  S
C355        C356   1.404       .  A
C355        C360   1.408       .  A
C356        C357   1.395       .  A
C356        H367   1.083       .  S
C357        C358   1.401       .  A
C357        H368   1.083       .  S
C358        C359   1.403       .  A
C359        C360   1.398       .  A
C359        H369   1.083       .  S
C360        H370   1.081       .  S
C371        C372   1.402       .  A
C371        C376   1.401       .  A
C372        C373   1.396       .  A
C372        H385   1.083       .  S
C373        C374   1.404       .  A
C373        H386   1.083       .  S
C374        C375   1.408       .  A
C374        C377   1.483       .  S
C375        C376   1.396       .  A
C375        H387   1.082       .  S
C376        H388   1.083       .  S
C377        C378   1.347       .  D
C377        H389   1.084       .  S
C378        C379   1.486       .  S
C378        H390   1.085       .  S
C379        C380   1.404       .  A
C379        C384   1.408       .  A
C380        C381   1.397       .  A
C380        H391   1.083       .  S
C381        C382   1.406       .  A
C381        H392   1.083       .  S
C382        C383   1.405       .  A
C383        C384   1.397       .  A
C383        H393   1.083       .  S
C384        H394   1.080       .  S
C395        C396   1.405       .  A
C395        C400   1.406       .  A
C396        C397   1.402       .  A
C396        H409   1.083       .  S
C397        C398   1.405       .  A
C397        H410   1.083       .  S
C398        C399   1.409       .  A
C398        C401   1.495       .  S
C399        C400   1.405       .  A
C399        H411   1.082   1_554  S
C400        H412   1.083   1_554  S
C401        C402   1.350   1_554  D
C401        H413   1.086       .  S
C402        C403   1.494       .  S
C402        H414   1.086       .  S
C403        C404   1.405       .  A
C403        C408   1.409   1_556  A
C404        C405   1.401       .  A
C404        H415   1.083       .  S
C405        C406   1.404       .  A
C405        H416   1.083       .  S
C406        C407   1.406   1_556  A
C407        C408   1.406       .  A
C407        H417   1.083       .  S
C408        H418   1.083       .  S
C419        C420   1.405   1_556  A
C419        C424   1.405       .  A
C420        C421   1.403       .  A
C420        H433   1.083       .  S
C421        C422   1.409   1_554  A
C421        H434   1.083       .  S
C422        C423   1.413       .  A
C422        C425   1.506       .  S
C423        C424   1.405       .  A
C423        H435   1.079       .  S
C424        H436   1.083       .  S
C425        C426   1.356       .  D
C425        H437   1.083   1_556  S
C426        C427   1.504       .  S
C426        H438   1.082       .  S
C427        C428   1.408       .  A
C427        C432   1.412   1_556  A
C428        C429   1.403       .  A
C428        H439   1.083       .  S
C429        C430   1.404       .  A
C429        H440   1.083       .  S
C430        C431   1.405   1_556  A
C431        C432   1.406       .  A
C431        H441   1.083       .  S
C432        H442   1.080       .  S
C443        C444   1.405       .  A
C443        C448   1.405       .  A
C444        C445   1.402       .  A
C444        H457   1.083       .  S
C445        C446   1.405       .  A
C445        H458   1.083       .  S
C446        C447   1.409       .  A
C446        C449   1.493       .  S
C447        C448   1.404       .  A
C447        H459   1.082       .  S
C448        H460   1.083       .  S
C449        C450   1.349   1_565  D
C449        H461   1.086       .  S
C450        C451   1.492   1_545  S
C450        H462   1.086       .  S
C451        C452   1.405   1_565  A
C451        C456   1.409       .  A
C452        C453   1.401       .  A
C452        H463   1.083       .  S
C453        C454   1.404   1_545  A
C453        H464   1.083       .  S
C454        C455   1.406       .  A
C455        C456   1.405       .  A
C455        H465   1.083       .  S
C456        H466   1.082       .  S
C467        C468   1.404       .  A
C467        C472   1.405   1_565  A
C468        C469   1.402       .  A
C468        H481   1.083       .  S
C469        C470   1.408       .  A
C469        H482   1.083       .  S
C470        C471   1.413   1_565  A
C470        C473   1.504       .  S
C471        C472   1.406       .  A
C471        H483   1.079       .  S
C472        H484   1.083       .  S
C473        C474   1.354   1_565  D
C473        H485   1.084       .  S
C474        C475   1.502       .  S
C474        H486   1.083       .  S
C475        C476   1.407       .  A
C475        C480   1.412   1_545  A
C476        C477   1.402       .  A
C476        H487   1.083       .  S
C477        C478   1.404   1_545  A
C477        H488   1.083       .  S
C478        C479   1.406       .  A
C479        C480   1.406       .  A
C479        H489   1.083       .  S
C480        H490   1.081       .  S
C491        C492   1.405       .  A
C491        C496   1.407   1_455  A
C492        C493   1.402       .  A
C492        H505   1.083       .  S
C493        C494   1.407       .  A
C493        H506   1.083       .  S
C494        C495   1.410   1_455  A
C494        C497   1.500       .  S
C495        C496   1.406       .  A
C495        H507   1.081       .  S
C496        H508   1.083       .  S
C497        C498   1.353   1_455  D
C497        H509   1.085       .  S
C498        C499   1.500       .  S
C498        H510   1.085       .  S
C499        C500   1.407       .  A
C499        C504   1.411       .  A
C500        C501   1.403       .  A
C500        H511   1.083       .  S
C501        C502   1.405       .  A
C501        H512   1.083       .  S
C502        C503   1.405       .  A
C503        C504   1.405       .  A
C503        H513   1.083       .  S
C504        H514   1.081   1_655  S
C515        C516   1.405       .  A
C515        C520   1.407   1_655  A
C516        C517   1.405       .  A
C516        H529   1.083       .  S
C517        C518   1.408       .  A
C517        H530   1.083       .  S
C518        C519   1.410   1_655  A
C518        C521   1.503       .  S
C519        C520   1.407       .  A
C519        H531   1.082       .  S
C520        H532   1.083       .  S
C521        C522   1.354   1_655  D
C521        H533   1.085       .  S
C522        C523   1.502       .  S
C522        H534   1.085       .  S
C523        C524   1.408       .  A
C523        C528   1.411   1_455  A
C524        C525   1.405       .  A
C524        H535   1.083       .  S
C525        C526   1.404       .  A
C525        H536   1.083       .  S
C526        C527   1.406   1_455  A
C527        C528   1.407       .  A
C527        H537   1.083       .  S
C528        H538   1.082       .  S
C539        C540   1.405       .  A
C539        C544   1.406   1_656  A
C540        C541   1.395       .  A
C540        H553   1.083       .  S
C541        C542   1.402       .  A
C541        H554   1.083       .  S
C542        C543   1.408   1_656  A
C542        C545   1.483       .  S
C543        C544   1.399       .  A
C543        H555   1.082       .  S
C544        H556   1.083       .  S
C545        C546   1.346   1_656  D
C545        H557   1.086       .  S
C546        C547   1.484       .  S
C546        H558   1.085       .  S
C547        C548   1.404       .  A
C547        C552   1.409   1_554  A
C548        C549   1.398       .  A
C548        H559   1.083       .  S
C549        C550   1.401       .  A
C549        H560   1.083       .  S
C550        C551   1.400   1_554  A
C551        C552   1.396       .  A
C551        H561   1.083       .  S
C552        H562   1.082       .  S
C563        C564   1.405       .  A
C563        C568   1.406   1_456  A
C564        C565   1.395       .  A
C564        H577   1.083       .  S
C565        C566   1.400       .  A
C565        H578   1.083       .  S
C566        C567   1.406   1_456  A
C566        C569   1.478       .  S
C567        C568   1.399       .  A
C567        H579   1.083       .  S
C568        H580   1.083       .  S
C569        C570   1.343   1_455  D
C569        H581   1.087       .  S
C570        C571   1.480       .  S
C570        H582   1.086       .  S
C571        C572   1.403       .  A
C571        C576   1.406   1_656  A
C572        C573   1.398       .  A
C572        H583   1.083       .  S
C573        C574   1.405       .  A
C573        H584   1.083       .  S
C574        C575   1.402   1_656  A
C575        C576   1.395       .  A
C575        H585   1.083       .  S
C576        H586   1.083       .  S
C587        C588   1.403   1_545  A
C587        C592   1.405   1_554  A
C588        C589   1.396       .  A
C588        H601   1.083       .  S
C589        C590   1.402   1_565  A
C589        H602   1.083       .  S
C590        C591   1.407   1_554  A
C590        C593   1.481       .  S
C591        C592   1.399       .  A
C591        H603   1.082       .  S
C592        H604   1.083       .  S
C593        C594   1.345   1_554  D
C593        H605   1.087   1_545  S
C594        C595   1.483       .  S
C594        H606   1.086       .  S
C595        C596   1.404   1_545  A
C595        C600   1.406   1_556  A
C596        C597   1.400       .  A
C596        H607   1.083       .  S
C597        C598   1.405   1_565  A
C597        H608   1.083       .  S
C598        C599   1.404   1_556  A
C599        C600   1.396       .  A
C599        H609   1.083       .  S
C600        H610   1.082       .  S
C611        C612   1.401       .  A
C611        C616   1.400   1_565  A
C612        C613   1.399       .  A
C612        H625   1.083       .  S
C613        C614   1.405       .  A
C613        H626   1.083       .  S
C614        C615   1.409   1_565  A
C614        C617   1.487       .  S
C615        C616   1.397       .  A
C615        H627   1.081       .  S
C616        H628   1.083       .  S
C617        C618   1.347   1_565  D
C617        H629   1.085       .  S
C618        C619   1.486       .  S
C618        H630   1.085       .  S
C619        C620   1.403   1_554  A
C619        C624   1.408   1_545  A
C620        C621   1.396       .  A
C620        H631   1.083       .  S
C621        C622   1.405   1_556  A
C621        H632   1.083       .  S
C622        C623   1.406   1_545  A
C623        C624   1.400       .  A
C623        H633   1.083       .  S
C624        H634   1.081       .  S
C635        C636   1.402       .  A
C635        C640   1.401       .  A
C636        C637   1.399       .  A
C636        H649   1.083   1_545  S
C637        C638   1.404       .  A
C637        H650   1.083   1_545  S
C638        C639   1.409       .  A
C638        C641   1.486       .  S
C639        C640   1.398       .  A
C639        H651   1.082   1_455  S
C640        H652   1.083   1_455  S
C641        C642   1.346       .  D
C641        H653   1.086       .  S
C642        C643   1.483       .  S
C642        H654   1.086   1_455  S
C643        C644   1.401   1_445  A
C643        C648   1.407       .  A
C644        C645   1.396       .  A
C644        H655   1.083       .  S
C645        C646   1.406   1_665  A
C645        H656   1.083       .  S
C646        C647   1.407       .  A
C647        C648   1.400       .  A
C647        H657   1.083       .  S
C648        H658   1.082       .  S
C659        C660   1.401       .  A
C659        C664   1.401   1_455  A
C660        C661   1.398       .  A
C660        H673   1.083       .  S
C661        C662   1.404       .  A
C661        H674   1.083       .  S
C662        C663   1.409   1_445  A
C662        C665   1.485       .  S
C663        C664   1.397   1_565  A
C663        H675   1.082       .  S
C664        H676   1.083   1_545  S
C665        C666   1.346   1_455  D
C665        H677   1.086       .  S
C666        C667   1.483       .  S
C666        H678   1.085       .  S
C667        C668   1.402       .  A
C667        C672   1.407   1_645  A
C668        C669   1.397       .  A
C668        H679   1.083       .  S
C669        C670   1.406       .  A
C669        H680   1.083       .  S
C670        C671   1.406   1_645  A
C671        C672   1.398       .  A
C671        H681   1.083       .  S
C672        H682   1.082       .  S
