geometry optimzed in LAMMPS
_audit_creation_date              2020-12-01 
_audit_creation_method            'lammps2cif' 
_symmetry_space_group_name_H-M    'P1' 
_symmetry_Int_Tables_number       1 
_symmetry_cell_setting            triclinic 
loop_ 
_symmetry_equiv_pos_as_xyz 
  x,y,z 
_cell_length_a                    22.37798916 
_cell_length_b                    22.219008290918055 
_cell_length_c                    22.3975808652383 
_cell_angle_alpha                 99.2230871933365 
_cell_angle_beta                  89.04784708966163 
_cell_angle_gamma                 95.08123222485695 
loop_ 
_atom_site_label 
_atom_site_type_symbol 
_atom_site_fract_x 
_atom_site_fract_y 
_atom_site_fract_z 
_atom_site_charge 
C1          C  0.82972459  0.30281306  0.45391808     0.02900
C2          C  0.84616295  0.36323259  0.48397582    -0.13200
C3          C  0.88051480  0.37553616  0.53690727     0.00400
C4          C  0.89565649  0.32491634  0.56123378    -0.11800
C5          C  0.86204170  0.26953135  0.54987196     0.02900
C6          C  0.83116814  0.25579390  0.49164390    -0.11200
H7          H  0.83359010  0.40054872  0.46392074     0.08500
H8          H  0.92468275  0.33141068  0.59901336     0.06000
H9          H  0.80887974  0.21073415  0.47699040     0.05900
C10         C  0.63147921  0.76997360  0.21464392     0.02900
C11         C  0.63030159  0.81180353  0.26932276    -0.13200
C12         C  0.60169991  0.86515765  0.26918196     0.00400
C13         C  0.55154785  0.86072008  0.23304475    -0.11800
C14         C  0.52858056  0.80311182  0.20314859     0.02900
C15         C  0.57360760  0.76048733  0.18381003    -0.11200
H16         H  0.66071901  0.81012630  0.30568103     0.08500
H17         H  0.52411837  0.89894316  0.23846110     0.06000
H18         H  0.56388533  0.72213145  0.14808581     0.05900
C19         C  0.28585083  0.48993530  0.70680885     0.02900
C20         C  0.25376826  0.54424852  0.72710590    -0.13200
C21         C  0.28533017  0.60475172  0.72892782     0.00400
C22         C  0.34345906  0.60675755  0.70659057    -0.11800
C23         C  0.37586802  0.55852809  0.71026720     0.02900
C24         C  0.34764132  0.50046917  0.69422417    -0.11200
H25         H  0.20886795  0.53953023  0.74540638     0.08500
H26         H  0.36908798  0.65039742  0.70826913     0.06000
H27         H  0.37618455  0.46286964  0.68939752     0.05900
C28         C  0.31642439  0.28735776  0.96531466     0.02900
C29         C  0.35263244  0.31573557  0.01716401    -0.13200
C30         C  0.32444944  0.33932066  0.07425484     0.00400
C31         C  0.26262668  0.34367517  0.07195105    -0.11800
C32         C  0.22865483  0.31418274  0.02216851     0.02900
C33         C  0.25497746  0.27660893  0.97612837    -0.11200
H34         H  0.40104275  0.31884041  0.01352345     0.08500
H35         H  0.23947991  0.36696618  0.11037804     0.06000
H36         H  0.22615738  0.25551883  0.93855726     0.05900
C37         C  0.27289374  0.01002714  0.32791970     0.02900
C38         C  0.30997168  0.02510327  0.37888305    -0.13200
C39         C  0.34080655  0.08361910  0.39116037     0.00400
C40         C  0.31358879  0.13162677  0.37338207    -0.11800
C41         C  0.26885270  0.12327901  0.32944518     0.02900
C42         C  0.25189201  0.06036113  0.30238049    -0.11200
H43         H  0.32722074  0.98799957  0.39729153     0.08500
H44         H  0.33879878  0.17533666  0.38111669     0.06000
H45         H  0.22786959  0.05105581  0.25989882     0.05900
C46         C  0.83507355  0.83475029  0.42065034     0.02900
C47         C  0.85833242  0.77910880  0.41558757    -0.13200
C48         C  0.85782833  0.75005450  0.46410561     0.00400
C49         C  0.81284972  0.75906160  0.50722861    -0.11800
C50         C  0.78460174  0.81524479  0.52136176     0.02900
C51         C  0.79726887  0.85416456  0.47419973    -0.11200
H52         H  0.88631218  0.76271242  0.37742588     0.08500
H53         H  0.80750862  0.72347160  0.53482405     0.06000
H54         H  0.77933511  0.89727444  0.47704448     0.05900
C55         C  0.34728492  0.87809932  0.95003336     0.02900
C56         C  0.37722566  0.86398110  0.00266126    -0.13200
C57         C  0.35283609  0.88253533  0.06288108     0.00400
C58         C  0.30058424  0.91268852  0.06646925    -0.11800
C59         C  0.26309507  0.89868417  0.01692652     0.02900
C60         C  0.28989673  0.89903603  0.96064942    -0.11200
H61         H  0.41494637  0.83630452  0.99675093     0.08500
H62         H  0.27922979  0.92328011  0.11041854     0.06000
H63         H  0.26013846  0.89938098  0.92365760     0.05900
N64         N  0.07399762  0.59003991  0.08622742    -0.36800
N65         N  0.08820261  0.68791367  0.96232381    -0.57400
N66         N  0.01019901  0.57540887  0.88647681    -0.36800
N67         N  0.00873687  0.48783379  0.98534181    -0.57400
C68         C  0.12135470  0.63163752  0.08590136     0.26800
C69         C  0.09377946  0.53720965  0.09552952     0.26800
C70         C  0.00774888  0.61993678  0.85202430     0.26800
C71         C  0.96062680  0.53687402  0.87570681     0.26800
C72         C  0.07387035  0.68473042  0.01976801     0.35400
C73         C  0.03591539  0.69062529  0.93706713     0.35400
C74         C  0.00959308  0.48086807  0.04375657     0.35400
C75         C  0.95898518  0.51470753  0.97808063     0.35400
C76         C  0.17144106  0.60793111  0.10429889    -0.22100
C77         C  0.15343604  0.54768571  0.11094128    -0.22100
C78         C  0.96402219  0.60050557  0.80835113    -0.22100
C79         C  0.93352127  0.54781409  0.82447165    -0.22100
C80         C  0.01341764  0.68648656  0.03168411    -0.23200
C81         C  0.98849550  0.68821442  0.97753186    -0.23200
C82         C  0.95965294  0.50170079  0.07403199    -0.23200
C83         C  0.92687162  0.52229626  0.03162630    -0.23200
C84         C  0.11812437  0.68517470  0.06055844    -0.18500
C85         C  0.06394825  0.48016983  0.07092917    -0.18500
C86         C  0.93287241  0.50748762  0.92129820    -0.18500
C87         C  0.02940600  0.68149261  0.87552906    -0.18500
H88         H  0.21646474  0.62951000  0.10605624     0.14400
H89         H  0.18148680  0.51246194  0.11725065     0.14400
H90         H  0.95089547  0.62490530  0.77326973     0.14400
H91         H  0.89397485  0.52237877  0.80371960     0.14400
H92         H  0.98975945  0.68411224  0.07359976     0.12700
H93         H  0.94123453  0.68304581  0.96793760     0.12700
H94         H  0.95088302  0.50527797  0.12196399     0.12700
H95         H  0.88414175  0.54022055  0.03818975     0.12700
H96         H  0.03080450  0.59517350  0.07341394     0.25900
H97         H  0.03845235  0.57734880  0.92349843     0.25900
C98         C  0.84027675  0.02459928  0.22944949     0.02900
C99         C  0.83803998  0.02057968  0.16712072    -0.13200
C100        C  0.85118015  0.07274571  0.14176423     0.00400
C101        C  0.89218243  0.11818188  0.17154231    -0.11800
C102        C  0.89217581  0.13203209  0.23575716     0.02900
C103        C  0.86590991  0.08224447  0.26466737    -0.11200
H104        H  0.81422977  0.98094724  0.14026510     0.08500
H105        H  0.90286904  0.15470202  0.14618042     0.06000
H106        H  0.85837404  0.09172446  0.31266727     0.05900
N107        N  0.40163336  0.02319225  0.11441871    -0.36800
N108        N  0.52335093  0.04015357  0.13774446    -0.57400
N109        N  0.54151973  0.07605466  0.02618493    -0.36800
N110        N  0.43416744  0.02765473  0.98736452    -0.57400
C111        C  0.40336565  0.03784080  0.17592533     0.26800
C112        C  0.35363546  0.04761919  0.09421229     0.26800
C113        C  0.57972233  0.11387282  0.06118840     0.26800
C114        C  0.53045343  0.10287104  0.97926261     0.26800
C115        C  0.50782733  0.01995521  0.18927830     0.35400
C116        C  0.58323160  0.04922910  0.13677495     0.35400
C117        C  0.37474718  0.02403440  0.98262660     0.35400
C118        C  0.45931223  0.02921020  0.93188805     0.35400
C119        C  0.35416422  0.06883220  0.19470843    -0.22100
C120        C  0.32269159  0.07531956  0.14375177    -0.22100
C121        C  0.59145274  0.16848348  0.03911279    -0.22100
C122        C  0.55781599  0.16216255  0.98692233    -0.22100
C123        C  0.55874670  0.01309813  0.22038326    -0.23200
C124        C  0.60707533  0.02824853  0.18523704    -0.23200
C125        C  0.36066927  0.01757960  0.92139655    -0.23200
C126        C  0.41424182  0.01992118  0.88945781    -0.23200
C127        C  0.45133603  0.02869623  0.21455517    -0.18500
C128        C  0.33757333  0.04584341  0.03231224    -0.18500
C129        C  0.51477048  0.06441780  0.92588534    -0.18500
C130        C  0.61209344  0.09064538  0.10206049    -0.18500
H131        H  0.34483504  0.08776345  0.24045561     0.14400
H132        H  0.28257615  0.09909925  0.14326194     0.14400
H133        H  0.62457611  0.20574490  0.05548289     0.14400
H134        H  0.56141403  0.19293831  0.95426175     0.14400
H135        H  0.56038670  0.00583661  0.26656375     0.12700
H136        H  0.65352820  0.03242100  0.19846645     0.12700
H137        H  0.31666533  0.01694441  0.90237567     0.12700
H138        H  0.41929796  0.02123567  0.84180319     0.12700
H139        H  0.43085650  0.99629530  0.08764650     0.25900
H140        H  0.53539801  0.02878345  0.02641510     0.25900
C141        C  0.77023325  0.26388219  0.93474826     0.02900
C142        C  0.73351354  0.31207044  0.94983572    -0.13200
C143        C  0.75040603  0.35335855  0.99990879     0.00400
C144        C  0.75394248  0.32924582  0.05243016    -0.11800
C145        C  0.77105456  0.26953784  0.05084163     0.02900
C146        C  0.78797866  0.23904410  0.98906749    -0.11200
H147        H  0.71962908  0.33527806  0.91463742     0.08500
H148        H  0.75660978  0.36189553  0.09325312     0.06000
H149        H  0.81806887  0.20307642  0.98450520     0.05900
O150        O  0.87422859  0.94175220  0.26220212    -0.82000
C151        C  0.80432214  0.70306455  0.27590277     0.97300
O152        O  0.76856691  0.74912793  0.28960054    -0.71100
O153        O  0.79825158  0.87357384  0.34015256    -0.74700
Al154      Al  0.77088328  0.84088028  0.26255015     1.49000
C155        C  0.84434317  0.86002784  0.36189485     0.92600
O156        O  0.95008089  0.80199389  0.22969191    -0.80900
O157        O  0.81748730  0.80241570  0.10580359    -0.74500
Al158      Al  0.89712952  0.86320175  0.23845929     1.90100
O159        O  0.91494273  0.74583760  0.14875707    -0.73600
O160        O  0.73181448  0.72989858  0.17659104    -0.73400
O161        O  0.83750430  0.70248150  0.22944278    -0.79100
O162        O  0.72308707  0.82344010  0.19151874    -0.77300
O163        O  0.83280270  0.81846711  0.22441491    -1.13400
O164        O  0.78011505  0.92665928  0.24073876    -0.72600
C165        C  0.82812182  0.96328691  0.24980828     0.98100
C166        C  0.95851452  0.76220803  0.18576296     0.94500
Al167      Al  0.82623429  0.75069678  0.16838024     1.55600
O168        O  0.89086179  0.85263684  0.32661141    -0.77200
C169        C  0.69574992  0.77204376  0.18649805     0.98700
C170        C  0.85246003  0.85057751  0.10040498     0.93500
O171        O  0.89116064  0.87324238  0.14499348    -0.82600
C172        C  0.83567472  0.53223432  0.31443970     0.02900
C173        C  0.77425720  0.51538088  0.31454824    -0.13200
C174        C  0.73891054  0.54525731  0.28042138     0.00400
C175        C  0.74359172  0.60893457  0.29062715    -0.11800
C176        C  0.79998931  0.64048827  0.30222185     0.02900
C177        C  0.84894033  0.59947888  0.31076927    -0.11200
H178        H  0.76048426  0.46744395  0.31456234     0.08500
H179        H  0.70950594  0.63116993  0.27048410     0.06000
H180        H  0.89514007  0.61697825  0.30587043     0.05900
O181        O  0.72830350  0.31420393  0.27445656    -0.82000
C182        C  0.97654707  0.34139490  0.19877233     0.97300
O183        O  0.93394521  0.36046769  0.17025372    -0.71100
O184        O  0.84315827  0.29064992  0.12970238    -0.74700
Al185      Al  0.84368760  0.36461033  0.18830708     1.49000
C186        C  0.79363173  0.26327282  0.11461097     0.92600
O187        O  0.84159519  0.21313725  0.22600679    -0.80900
O188        O  0.84073110  0.34579368  0.36445060    -0.74500
Al189      Al  0.78759487  0.26394090  0.25137455     1.90100
O190        O  0.90811904  0.24340835  0.29764930    -0.73600
O191        O  0.89429777  0.43662051  0.31859488    -0.73400
O192        O  0.96871538  0.33895141  0.25391809    -0.79100
O193        O  0.84899792  0.44575251  0.23583806    -0.77300
O194        O  0.84413490  0.32541704  0.24888714    -1.13400
O195        O  0.74694714  0.36695314  0.19905529    -0.72600
C196        C  0.70867961  0.34495222  0.23763141     0.98100
C197        C  0.88218548  0.19989561  0.25708349     0.94500
Al198      Al  0.89946522  0.34068715  0.30497535     1.55600
O199        O  0.76005570  0.25375298  0.16008047    -0.77200
C200        C  0.86735877  0.47121484  0.28779215     0.98700
C201        C  0.82066863  0.29888069  0.38441090     0.93500
O202        O  0.79989515  0.25482263  0.34353256    -0.82600
C203        C  0.64182468  0.35640525  0.25028925     0.02900
C204        C  0.63483112  0.38954570  0.30840868    -0.13200
C205        C  0.58823072  0.37386733  0.34687997     0.00400
C206        C  0.53941207  0.33427762  0.32241348    -0.11800
C207        C  0.53328390  0.31272022  0.26039971     0.02900
C208        C  0.58792149  0.31929582  0.22442614    -0.11200
H209        H  0.67038061  0.42268537  0.32620168     0.08500
H210        H  0.50207002  0.32412901  0.35168382     0.06000
H211        H  0.58863715  0.29554229  0.17840940     0.05900
C212        C  0.10346184  0.34402526  0.77233040     0.02900
C213        C  0.09707457  0.32616020  0.70873178    -0.13200
C214        C  0.04173692  0.31838494  0.68045489     0.00400
C215        C  0.99286937  0.33825909  0.71146982    -0.11800
C216        C  0.99195294  0.35039783  0.77379039     0.02900
C217        C  0.04790622  0.35150200  0.80625603    -0.11200
H218        H  0.13400911  0.31210631  0.68024911     0.08500
H219        H  0.95133156  0.33303407  0.68706172     0.06000
H220        H  0.04780076  0.35521835  0.85503180     0.05900
N221        N  0.07195981  0.94231081  0.34508398    -0.36800
N222        N  0.16162605  0.94942505  0.44580001    -0.57400
N223        N  0.11238139  0.06873045  0.48734988    -0.36800
N224        N  0.03241378  0.06260753  0.39593289    -0.57400
C225        C  0.11511516  0.90472578  0.32840248     0.26800
C226        C  0.06017696  0.97019399  0.29776222     0.26800
C227        C  0.15420213  0.06538336  0.52818733     0.26800
C228        C  0.09152432  0.12443288  0.50100468     0.26800
C229        C  0.15251506  0.88868341  0.42476926     0.35400
C230        C  0.16056013  0.95438391  0.50680397     0.35400
C231        C  0.99295597  0.03131462  0.35628017     0.35400
C232        C  0.00256433  0.09754834  0.43810000     0.35400
C233        C  0.13404459  0.91224287  0.27043998    -0.22100
C234        C  0.10049450  0.95476949  0.25193932    -0.22100
C235        C  0.16445820  0.12108444  0.56535671    -0.22100
C236        C  0.12585323  0.15920258  0.54734342    -0.22100
C237        C  0.14999967  0.85570350  0.47183472    -0.23200
C238        C  0.15331895  0.89688559  0.52362350    -0.23200
C239        C  0.93578440  0.04512955  0.37428687    -0.23200
C240        C  0.94172015  0.08863171  0.42631393    -0.23200
C241        C  0.13364255  0.86391004  0.36572715    -0.18500
C242        C  0.01411947  0.00971922  0.29819908    -0.18500
C243        C  0.03316833  0.13608605  0.48518465    -0.18500
C244        C  0.16038596  0.01010022  0.54749657    -0.18500
H245        H  0.17045025  0.89464478  0.24416524     0.14400
H246        H  0.10631579  0.97286204  0.21009534     0.14400
H247        H  0.18928712  0.12956867  0.60733821     0.14400
H248        H  0.11842166  0.20386867  0.57174799     0.14400
H249        H  0.13863708  0.80750986  0.46948304     0.12700
H250        H  0.14576110  0.88504709  0.56812462     0.12700
H251        H  0.89448063  0.02347893  0.35422570     0.12700
H252        H  0.90593940  0.10940178  0.45295095     0.12700
H253        H  0.05122594  0.94839352  0.38735064     0.25900
H254        H  0.08886930  0.02941754  0.46491170     0.25900
C255        C  0.33578242  0.27410711  0.45181071     0.02900
C256        C  0.27939963  0.24116403  0.45152862    -0.13200
C257        C  0.24954853  0.23623873  0.50397480     0.00400
C258        C  0.28210473  0.21883934  0.54900711    -0.11800
C259        C  0.34112664  0.24513532  0.56016950     0.02900
C260        C  0.36893712  0.27497329  0.50923680    -0.11200
H261        H  0.25063343  0.23561633  0.41321497     0.08500
H262        H  0.25591196  0.20411641  0.58576674     0.06000
H263        H  0.41129883  0.30092064  0.51576336     0.05900
C264        C  0.24694815  0.99822164  0.79414582     0.02900
C265        C  0.20950600  0.01362707  0.84343733    -0.13200
C266        C  0.19648746  0.07466292  0.86192069     0.00400
C267        C  0.20248233  0.11632696  0.82028839    -0.11800
C268        C  0.23843593  0.10541099  0.76822634     0.02900
C269        C  0.26330000  0.04621546  0.75770262    -0.11200
H270        H  0.20194161  0.98123352  0.87469124     0.08500
H271        H  0.19137661  0.16281982  0.83585310     0.06000
H272        H  0.29682787  0.03849063  0.72290542     0.05900
O273        O  0.18614667  0.28549846  0.77323664    -0.82000
C274        C  0.43278175  0.36103718  0.80609344     0.97300
O275        O  0.38972201  0.38188293  0.84011920    -0.71100
O276        O  0.31190435  0.42389116  0.76940377    -0.74700
Al277      Al  0.29901507  0.37261831  0.82373940     1.49000
C278        C  0.27540087  0.42916048  0.72908189     0.92600
O279        O  0.30269392  0.29674041  0.65038715    -0.80900
O280        O  0.31378541  0.18794365  0.77335996    -0.74500
Al281      Al  0.24703895  0.29038705  0.71379367     1.90100
O282        O  0.36828794  0.23796974  0.67055215    -0.73600
O283        O  0.36347956  0.27042370  0.86009186    -0.73400
O284        O  0.41838950  0.32706486  0.75763022    -0.79100
O285        O  0.28688658  0.32631698  0.88220903    -0.77300
O286        O  0.30242963  0.30665107  0.76764717    -1.13400
O287        O  0.20589603  0.37794492  0.81824658    -0.72600
C288        C  0.16619302  0.33513080  0.79524408     0.98100
C289        C  0.34400255  0.26442363  0.63083210     0.94500
Al290      Al  0.36230377  0.25960909  0.76536648     1.55600
O291        O  0.24011676  0.38196011  0.70658011    -0.77200
C292        C  0.32567999  0.29512923  0.89939251     0.98700
C293        C  0.26678120  0.16448217  0.74669373     0.93500
O294        O  0.24161382  0.19643455  0.71229747    -0.82600
C295        C  0.60609899  0.34907135  0.81792557     0.02900
C296        C  0.60049112  0.31874726  0.86801202    -0.13200
C297        C  0.54688795  0.28508125  0.87677175     0.00400
C298        C  0.49714756  0.31829922  0.87397096    -0.11800
C299        C  0.49527721  0.35639427  0.82931911     0.02900
C300        C  0.55080119  0.36726968  0.79672639    -0.11200
H301        H  0.63832775  0.30271350  0.88472323     0.08500
H302        H  0.45714572  0.30430135  0.89693330     0.06000
H303        H  0.55048504  0.38700532  0.75561725     0.05900
O304        O  0.78293603  0.26252485  0.61607689    -0.82000
C305        C  0.79818117  0.26737213  0.86966628     0.97300
O306        O  0.80883692  0.22328740  0.82641293    -0.71100
O307        O  0.80130895  0.16701610  0.70447277    -0.74700
Al308      Al  0.84110514  0.23784164  0.74209662     1.49000
C309        C  0.75145785  0.14996393  0.68237431     0.92600
O310        O  0.66750742  0.29932955  0.73876462    -0.80900
O311        O  0.80621966  0.41852566  0.72863729    -0.74500
Al312      Al  0.73123840  0.28169718  0.68121289     1.90100
O313        O  0.71393922  0.37235676  0.80376195    -0.73600
O314        O  0.88946982  0.37517920  0.78560295    -0.73400
O315        O  0.80180579  0.32161413  0.85663531    -0.79100
O316        O  0.90926142  0.28247717  0.78422197    -0.77300
O317        O  0.79055453  0.29469775  0.73727577    -1.13400
O318        O  0.87032040  0.24984826  0.65706181    -0.72600
C319        C  0.83766239  0.25442253  0.60997366     0.98100
C320        C  0.66510407  0.34236751  0.78316647     0.94500
Al321      Al  0.80164302  0.36503104  0.78894700     1.55600
O322        O  0.71396109  0.19040252  0.68121794    -0.77200
C323        C  0.92762448  0.33773061  0.79094370     0.98700
C324        C  0.77182922  0.41904979  0.68491823     0.93500
O325        O  0.73820311  0.36976346  0.66583727    -0.82600
C326        C  0.75595314  0.48213963  0.67295360     0.02900
C327        C  0.79344079  0.53491212  0.65433412    -0.13200
C328        C  0.76978926  0.59538989  0.65769628     0.00400
C329        C  0.71151973  0.59679907  0.68366421    -0.11800
C330        C  0.69390802  0.55641739  0.72401668     0.02900
C331        C  0.70407086  0.49610147  0.70604457    -0.11200
H332        H  0.83981150  0.53072456  0.64270600     0.08500
H333        H  0.69124902  0.63988981  0.69145333     0.06000
H334        H  0.68159270  0.46281003  0.73133324     0.05900
O335        O  0.76056149  0.77777865  0.61339011    -0.82000
C336        C  0.78552622  0.86070992  0.86676236     0.97300
O337        O  0.75506043  0.88518535  0.82946738    -0.71100
O338        O  0.82579976  0.91452106  0.73989934    -0.74700
Al339      Al  0.75166511  0.86748295  0.73256138     1.49000
C340        C  0.83101306  0.93667433  0.69282656     0.92600
O341        O  0.91010250  0.80656998  0.68444276    -0.80900
O342        O  0.78852741  0.68933890  0.71934270    -0.74500
Al343      Al  0.83497602  0.79447012  0.65096462     1.90100
O344        O  0.89146088  0.76795592  0.76824886    -0.73600
O345        O  0.70337944  0.74560269  0.77420067    -0.73400
O346        O  0.80722328  0.81304239  0.84384871    -0.79100
O347        O  0.67751388  0.82208560  0.73041114    -0.77300
O348        O  0.79492623  0.80540064  0.72019767    -1.13400
O349        O  0.74157676  0.86886546  0.63051813    -0.72600
C350        C  0.75506607  0.82279938  0.58900345     0.98100
C351        C  0.92917531  0.79302978  0.73232328     0.94500
Al352      Al  0.79777040  0.75800809  0.77213533     1.55600
O353        O  0.84363923  0.89540325  0.64669842    -0.77200
C354        C  0.66274949  0.77199583  0.74855775     0.98700
C355        C  0.80228098  0.66247139  0.66954601     0.93500
O356        O  0.83188401  0.69693131  0.63632651    -0.82600
C357        C  0.60330245  0.74069385  0.71959393     0.02900
C358        C  0.61050436  0.72692499  0.65673436    -0.13200
C359        C  0.56750103  0.74443862  0.62053697     0.00400
C360        C  0.50774110  0.73261350  0.63658948    -0.11800
C361        C  0.49047390  0.73858295  0.69739850     0.02900
C362        C  0.54120968  0.74861177  0.74015093    -0.11200
H363        H  0.65573462  0.72665392  0.63857755     0.08500
H364        H  0.47623226  0.74063539  0.60521467     0.06000
H365        H  0.53321227  0.76739994  0.78676496     0.05900
O366        O  0.26389922  0.69313107  0.69845348    -0.82000
C367        C  0.27425211  0.93558770  0.78758909     0.97300
O368        O  0.25558422  0.89147211  0.81907313    -0.71100
O369        O  0.19089095  0.78098351  0.77911350    -0.74700
Al370      Al  0.26813382  0.79651813  0.81038321     1.49000
C371        C  0.16760310  0.78768235  0.73111951     0.92600
O372        O  0.30220386  0.83680661  0.63189959    -0.80900
O373        O  0.42308593  0.80360786  0.75592791    -0.74500
Al374      Al  0.28893797  0.76922953  0.67658357     1.90100
O375        O  0.39071413  0.86368317  0.66467966    -0.73600
O376        O  0.37151672  0.88969096  0.84487549    -0.73400
O377        O  0.31842494  0.92851720  0.75125821    -0.79100
O378        O  0.33747068  0.80216175  0.86164556    -0.77300
O379        O  0.30814512  0.80978841  0.74657223    -1.13400
O380        O  0.27574947  0.70469736  0.79623223    -0.72600
C381        C  0.26713040  0.66928567  0.74488192     0.98100
C382        C  0.35495524  0.85418538  0.61995115     0.94500
Al383      Al  0.37096475  0.86675350  0.75365279     1.55600
O384        O  0.20168564  0.78983519  0.68419540    -0.77200
C385        C  0.35904723  0.85446291  0.88347782     0.98700
C386        C  0.42659343  0.76107558  0.71067745     0.93500
O387        O  0.38014675  0.74616724  0.67292847    -0.82600
C388        C  0.12894802  0.73159449  0.19573125     0.02900
C389        C  0.07618690  0.76321344  0.18818130    -0.13200
C390        C  0.01661529  0.73105988  0.18593394     0.00400
C391        C  0.01214149  0.67445229  0.20716915    -0.11800
C392        C  0.06113286  0.66062854  0.24001605     0.02900
C393        C  0.11764616  0.67485493  0.21509545    -0.11200
H394        H  0.08098306  0.81147157  0.18527081     0.08500
H395        H  0.96781191  0.65455144  0.21699498     0.06000
H396        H  0.15566021  0.65251559  0.22723184     0.05900
O397        O  0.32429958  0.80513245  0.12236137    -0.82000
C398        C  0.35598448  0.85399787  0.38351300     0.97300
O399        O  0.37801751  0.88794057  0.34580272    -0.71100
O400        O  0.43952641  0.82753234  0.25568327    -0.74700
Al401      Al  0.37612562  0.87773233  0.25396341     1.49000
C402        C  0.46009319  0.79464105  0.21001552     0.92600
O403        O  0.34106504  0.69622775  0.23438296    -0.80900
O404        O  0.20552844  0.80467767  0.24056119    -0.74500
Al405      Al  0.33067566  0.75358652  0.18149080     1.90100
O406        O  0.26124907  0.71421811  0.28926989    -0.73600
O407        O  0.25877587  0.89840021  0.32032856    -0.73400
O408        O  0.31756716  0.81044628  0.36482747    -0.79100
O409        O  0.31679234  0.93631860  0.25396997    -0.77300
O410        O  0.32398050  0.81363652  0.24418666    -1.13400
O411        O  0.38659701  0.88134645  0.16532161    -0.72600
C412        C  0.35878403  0.85280075  0.11821836     0.98100
C413        C  0.29781461  0.67607177  0.26451156     0.94500
Al414      Al  0.26589858  0.80757711  0.29869258     1.55600
O415        O  0.42217527  0.76340230  0.17271581    -0.77200
C416        C  0.27860220  0.94470241  0.29596380     0.98700
C417        C  0.19434073  0.75901168  0.20081021     0.93500
O418        O  0.23924670  0.73130029  0.17620356    -0.82600
C419        C  0.27440996  0.49799771  0.27449561     0.02900
C420        C  0.25826847  0.48079729  0.21398464    -0.13200
C421        C  0.27780000  0.51961196  0.17353086     0.00400
C422        C  0.28155887  0.58215207  0.19272259    -0.11800
C423        C  0.28400309  0.60661652  0.25428885     0.02900
C424        C  0.28713260  0.56267777  0.29559919    -0.11200
H425        H  0.25124151  0.43243735  0.19641110     0.08500
H426        H  0.29417615  0.61134410  0.15945897     0.06000
H427        H  0.30102790  0.57659503  0.34122453     0.05900
C428        C  0.38428773  0.85313504  0.44440057     0.02900
C429        C  0.35884948  0.87088073  0.50379942    -0.13200
C430        C  0.37758750  0.84411363  0.55439162     0.00400
C431        C  0.40743866  0.79103261  0.53913084    -0.11800
C432        C  0.43233917  0.77302048  0.48153496     0.02900
C433        C  0.42797958  0.81195462  0.43920900    -0.11200
H434        H  0.32416104  0.90227434  0.50971586     0.08500
H435        H  0.39960999  0.75824790  0.56898119     0.06000
H436        H  0.44629180  0.79868616  0.39487834     0.05900
C437        C  0.10642992  0.81226529  0.74034830     0.02900
C438        C  0.10910267  0.87293272  0.76716701    -0.13200
C439        C  0.06896809  0.90782644  0.74576118     0.00400
C440        C  0.00926466  0.88022477  0.73832731    -0.11800
C441        C  0.99519179  0.81741149  0.74460571     0.02900
C442        C  0.04694675  0.78175886  0.74076253    -0.11200
H443        H  0.15072232  0.89518506  0.78647126     0.08500
H444        H  0.97453187  0.90491118  0.72326038     0.06000
H445        H  0.04182169  0.73322225  0.73999898     0.05900
C446        C  0.79694230  0.99725466  0.69762529     0.02900
C447        C  0.76335733  0.00927592  0.75232551    -0.13200
C448        C  0.70590246  0.02872729  0.75157915     0.00400
C449        C  0.69196599  0.06103937  0.70620505    -0.11800
C450        C  0.73855472  0.08084610  0.67011622     0.02900
C451        C  0.78682021  0.03961825  0.65705102    -0.11200
H452        H  0.77586238  0.99292398  0.79295021     0.08500
H453        H  0.65064058  0.08241104  0.70975144     0.06000
H454        H  0.81804498  0.04469721  0.62046507     0.05900
C455        C  0.13304143  0.26564090  0.16550243     0.02900
C456        C  0.10833280  0.20781049  0.14125903    -0.13200
C457        C  0.04633946  0.19524259  0.14388307     0.00400
C458        C  0.00794434  0.24280546  0.14598395    -0.11800
C459        C  0.02767534  0.30392052  0.16754852     0.02900
C460        C  0.09185279  0.31448164  0.17954935    -0.11200
H461        H  0.13632716  0.16987888  0.13790394     0.08500
H462        H  0.96036651  0.23173376  0.14512250     0.06000
H463        H  0.10864469  0.35833890  0.20451085     0.05900
O464        O  0.33917314  0.27451910  0.14079259    -0.82000
C465        C  0.33821521  0.31092740  0.39571136     0.97300
O466        O  0.37944808  0.31709620  0.35482352    -0.71100
O467        O  0.44387853  0.35951105  0.26042415    -0.74700
Al468      Al  0.36499708  0.34556173  0.26973784     1.49000
C469        C  0.46598947  0.30751352  0.24267640     0.92600
O470        O  0.31653617  0.19177748  0.27023780    -0.80900
O471        O  0.19689585  0.30776907  0.24277898    -0.74500
Al472      Al  0.32722220  0.24146199  0.21065357     1.90100
O473        O  0.23193607  0.22174120  0.31144865    -0.73600
O474        O  0.24627601  0.40233850  0.30769702    -0.73400
O475        O  0.28721082  0.32663618  0.38369033    -0.79100
O476        O  0.34318002  0.42843837  0.30251076    -0.77300
O477        O  0.30477860  0.30606707  0.26193637    -1.13400
O478        O  0.35219445  0.36864209  0.18528009    -0.72600
C479        C  0.34428993  0.32927984  0.13602051     0.98100
C480        C  0.26906750  0.17997119  0.29889425     0.94500
Al481      Al  0.24398469  0.31409782  0.30870493     1.55600
O482        O  0.42935633  0.25559401  0.22526157    -0.77200
C483        C  0.28913466  0.44311017  0.30267074     0.98700
C484        C  0.19363086  0.26817593  0.19662725     0.93500
O485        O  0.23611542  0.23014729  0.18450843    -0.82600
C486        C  0.81453573  0.89032497  0.93038560     0.02900
C487        C  0.80374991  0.87275948  0.99192560    -0.13200
C488        C  0.85296080  0.87578511  0.03752557     0.00400
C489        C  0.91085539  0.88773698  0.01482126    -0.11800
C490        C  0.91986830  0.89131974  0.95337357     0.02900
C491        C  0.87450476  0.91080657  0.92056683    -0.11200
H492        H  0.76000236  0.85175113  0.00182036     0.08500
H493        H  0.94868201  0.87757298  0.03995442     0.06000
H494        H  0.88684834  0.91921887  0.87530371     0.05900
N495        N  0.58482621  0.50193994  0.06787510    -0.36800
N496        N  0.49699190  0.57543018  0.99189244    -0.57400
N497        N  0.58106082  0.68211383  0.98703326    -0.36800
N498        N  0.67681686  0.64495610  0.05996646    -0.57400
C499        C  0.52899526  0.51407845  0.08049840     0.26800
C500        C  0.61947592  0.54624562  0.10052000     0.26800
C501        C  0.53897291  0.69229716  0.94864506     0.26800
C502        C  0.63152713  0.71494542  0.97456104     0.26800
C503        C  0.48519949  0.51478101  0.98957392     0.35400
C504        C  0.49361863  0.58526051  0.93502413     0.35400
C505        C  0.70950037  0.60263658  0.07732167     0.35400
C506        C  0.71060312  0.67272863  0.02058941     0.35400
C507        C  0.52686659  0.56687695  0.12299335    -0.22100
C508        C  0.58585348  0.58786673  0.13569595    -0.22100
C509        C  0.55800299  0.74374614  0.92341395    -0.22100
C510        C  0.61803257  0.75603776  0.93744961    -0.22100
C511        C  0.47310910  0.48526992  0.93226564    -0.23200
C512        C  0.47885924  0.53000251  0.89664041    -0.23200
C513        C  0.76718481  0.61092446  0.05605843    -0.23200
C514        C  0.76795257  0.65596945  0.02138400    -0.23200
C515        C  0.48425547  0.48793834  0.04098594    -0.18500
C516        C  0.68091233  0.54848908  0.09391936    -0.18500
C517        C  0.68499416  0.68688837  0.96870210    -0.18500
C518        C  0.49981302  0.64419346  0.91880942    -0.18500
H519        H  0.48759868  0.59005256  0.13859665     0.14400
H520        H  0.60233440  0.62871933  0.16586358     0.14400
H521        H  0.53575314  0.76135211  0.88828568     0.14400
H522        H  0.64996821  0.78399592  0.91447513     0.14400
H523        H  0.46180037  0.43705260  0.91907348     0.12700
H524        H  0.47405474  0.52197955  0.84814364     0.12700
H525        H  0.80222401  0.58175348  0.05394760     0.12700
H526        H  0.80378100  0.66598825  0.99162428     0.12700
H527        H  0.59836207  0.46839565  0.03337938     0.25900
H528        H  0.58072374  0.64472128  0.00954246     0.25900
N529        N  0.61959773  0.18206220  0.48822309    -0.36800
N530        N  0.52532067  0.19268258  0.58317546    -0.57400
N531        N  0.56565087  0.07368724  0.60848677    -0.36800
N532        N  0.65277390  0.07234517  0.52304149    -0.57400
C533        C  0.58294560  0.22414797  0.47828248     0.26800
C534        C  0.62732276  0.14543164  0.43471665     0.26800
C535        C  0.51194047  0.08287953  0.63405625     0.26800
C536        C  0.56614797  0.01327518  0.58691924     0.26800
C537        C  0.54070797  0.25192054  0.57772183     0.35400
C538        C  0.50926251  0.19249865  0.64142989     0.35400
C539        C  0.68928633  0.07959218  0.47707316     0.35400
C540        C  0.66560913  0.02227186  0.54384123     0.35400
C541        C  0.56913700  0.21673688  0.41747239    -0.22100
C542        C  0.59578524  0.16532402  0.39004403    -0.22100
C543        C  0.47690494  0.02794355  0.63007813    -0.22100
C544        C  0.51080720  0.98377562  0.59876564    -0.22100
C545        C  0.53249325  0.28986269  0.63180715    -0.23200
C546        C  0.51261353  0.25201852  0.67228422    -0.23200
C547        C  0.73341083  0.03890726  0.47519394    -0.23200
C548        C  0.71967098  0.00474007  0.52098964    -0.23200
C549        C  0.56439406  0.26975134  0.52419383    -0.18500
C550        C  0.66171163  0.09432221  0.42679695    -0.18500
C551        C  0.61878348  0.98509555  0.56428736    -0.18500
C552        C  0.50015824  0.13887334  0.66839010    -0.18500
H553        H  0.54077782  0.24373729  0.39602526     0.14400
H554        H  0.59322070  0.14521533  0.34280948     0.14400
H555        H  0.43235221  0.02034816  0.64843833     0.14400
H556        H  0.49723263  0.93529759  0.58812101     0.14400
H557        H  0.54319778  0.33881613  0.64200158     0.12700
H558        H  0.50535528  0.26585694  0.71998819     0.12700
H559        H  0.76631453  0.02914211  0.43978731     0.12700
H560        H  0.74094664  0.96646296  0.53140164     0.12700
H561        H  0.63936347  0.18060546  0.52980688     0.25900
H562        H  0.60202618  0.10687072  0.61316001     0.25900
N563        N  0.08328787  0.50280038  0.57364929    -0.36800
N564        N  0.08557528  0.66853655  0.62918851    -0.57400
N565        N  0.16485581  0.66289376  0.49126359    -0.36800
N566        N  0.19136126  0.54251980  0.46063268    -0.57400
C567        C  0.08523610  0.54565157  0.62331153     0.26800
C568        C  0.13968996  0.49749510  0.55602005     0.26800
C569        C  0.14504884  0.71159944  0.52713519     0.26800
C570        C  0.22545196  0.67174912  0.48821069     0.26800
C571        C  0.03839861  0.63827025  0.65295853     0.35400
C572        C  0.06242866  0.70909761  0.60059680     0.35400
C573        C  0.19358818  0.48347536  0.46468611     0.35400
C574        C  0.24639616  0.56488201  0.44796068     0.35400
C575        C  0.14419129  0.56595428  0.63877380    -0.22100
C576        C  0.17912827  0.53556630  0.59509599    -0.22100
C577        C  0.19291336  0.75292622  0.54664661    -0.22100
C578        C  0.24360616  0.72875873  0.52026934    -0.22100
C579        C  0.98772359  0.66920455  0.65259711    -0.23200
C580        C  0.00270519  0.71385066  0.61848673    -0.23200
C581        C  0.24948313  0.46511642  0.44715399    -0.23200
C582        C  0.28352264  0.51734640  0.43651832    -0.23200
C583        C  0.03450126  0.57474480  0.64424891    -0.18500
C584        C  0.15554684  0.45764999  0.50524745    -0.18500
C585        C  0.26485214  0.62768542  0.46216653    -0.18500
C586        C  0.08474740  0.71810293  0.54335994    -0.18500
H587        H  0.15966497  0.60171476  0.67521247     0.14400
H588        H  0.22750408  0.54019654  0.59215058     0.14400
H589        H  0.19125846  0.79656154  0.57537788     0.14400
H590        H  0.28893114  0.74917755  0.52670220     0.14400
H591        H  0.94243528  0.65408026  0.66463770     0.12700
H592        H  0.96978853  0.73929357  0.60185534     0.12700
H593        H  0.26682643  0.42245388  0.45214420     0.12700
H594        H  0.33152003  0.52106774  0.42908181     0.12700
H595        H  0.04608730  0.48476433  0.54728972     0.25900
H596        H  0.13781073  0.62586005  0.47119502     0.25900
C597        C  0.44205918  0.70679078  0.45777367    -0.06300
C598        C  0.43035032  0.66553067  0.49885814    -0.17500
C599        C  0.37129200  0.63901125  0.50278589     0.10900
C600        C  0.32939853  0.64688132  0.45859380    -0.06300
C601        C  0.35117778  0.66962158  0.40702814    -0.17500
C602        C  0.41229909  0.68598148  0.40252167     0.10900
S603        S  0.35175788  0.59857000  0.56426271    -0.32500
S604        S  0.44695541  0.69009714  0.32995168    -0.32500
H605        H  0.50445185  0.70955043  0.35405797     0.28900
H606        H  0.29656874  0.62388254  0.57587509     0.28900
H607        H  0.46273025  0.66213884  0.53293510     0.19500
H608        H  0.32145522  0.67349553  0.37137507     0.19500
C609        C  0.32588810  0.49811325  0.13309776    -0.06300
C610        C  0.37651612  0.48225445  0.16096584    -0.17500
C611        C  0.42386335  0.46018583  0.12695960     0.10900
C612        C  0.42652974  0.46657702  0.06571792    -0.06300
C613        C  0.37393710  0.47526827  0.03647152    -0.17500
C614        C  0.32520971  0.49541339  0.07017732     0.10900
S615        S  0.48233100  0.42970927  0.16425573    -0.32500
S616        S  0.27126945  0.53026774  0.03322917    -0.32500
H617        H  0.28628207  0.50689121  0.97336463     0.28900
H618        H  0.49679187  0.38985294  0.11167859     0.28900
H619        H  0.37874610  0.48545048  0.20960537     0.19500
H620        H  0.37389308  0.47610644  0.98850515     0.19500
C621        C  0.58386297  0.80501127  0.60121262    -0.06300
C622        C  0.60976327  0.80927950  0.54453095    -0.17500
C623        C  0.62690242  0.86721031  0.52825620     0.10900
C624        C  0.62514753  0.92078428  0.57307866    -0.06300
C625        C  0.61300730  0.91288977  0.63191361    -0.17500
C626        C  0.58169782  0.85990423  0.64297777     0.10900
S627        S  0.65387578  0.86625837  0.45234808    -0.32500
S628        S  0.52711122  0.87121270  0.70142536    -0.32500
H629        H  0.52141583  0.93394646  0.70284279     0.28900
H630        H  0.65213546  0.92825106  0.45225022     0.28900
H631        H  0.61394696  0.76799768  0.51220836     0.19500
H632        H  0.61392103  0.95309155  0.66633375     0.19500
C633        C  0.69739585  0.57990509  0.79063375    -0.06300
C634        C  0.66096488  0.55491860  0.83337972    -0.17500
C635        C  0.66111254  0.58501244  0.89399036     0.10900
C636        C  0.69224480  0.64439675  0.90982692    -0.06300
C637        C  0.73319426  0.66309214  0.86812258    -0.17500
C638        C  0.74283896  0.62452802  0.81396771     0.10900
S639        S  0.62926753  0.54313272  0.94965349    -0.32500
S640        S  0.81948334  0.61213798  0.79514020    -0.32500
H641        H  0.80700105  0.54907402  0.77634240     0.28900
H642        H  0.61023700  0.48876736  0.91087722     0.28900
H643        H  0.63187729  0.51366624  0.81937798     0.19500
H644        H  0.76173816  0.70412710  0.88078723     0.19500
C645        C  0.51533103  0.14742975  0.73354741    -0.06300
C646        C  0.57425173  0.16769874  0.74936785    -0.17500
C647        C  0.58842455  0.19558097  0.80759728     0.10900
C648        C  0.54180001  0.21848334  0.84635290    -0.06300
C649        C  0.48460489  0.18632125  0.83568759    -0.19500
C650        C  0.47230170  0.14836141  0.77957185     0.10900
S651        S  0.66603779  0.20134252  0.82702512    -0.32500
S652        S  0.40367424  0.10140663  0.76553566    -0.32500
H653        H  0.37982998  0.11708572  0.82397538     0.28900
H654        H  0.65444801  0.20407791  0.88927463     0.28900
H655        H  0.60859459  0.16606553  0.71505507     0.19500
H656        H  0.44883639  0.19500582  0.86811177     0.19500
C657        C  0.20717517  0.28439595  0.51846504    -0.06300
C658        C  0.16241885  0.28661862  0.47495861    -0.17500
C659        C  0.14358263  0.34352151  0.46753985     0.10900
C660        C  0.15780863  0.39371403  0.51334078    -0.06300
C661        C  0.18243505  0.38276527  0.56694831    -0.17500
C662        C  0.22272051  0.33942840  0.55957111     0.10900
S663        S  0.10364810  0.35016147  0.40015449    -0.32500
S664        S  0.29844766  0.37639880  0.56675667    -0.32500
H665        H  0.28603263  0.43827981  0.57787290     0.28900
H666        H  0.07906255  0.40536399  0.42279380     0.28900
H667        H  0.15060512  0.24709139  0.44087672     0.19500
H668        H  0.18964740  0.41943327  0.60483045     0.19500
C669        C  0.14625352  0.00727231  0.61152358    -0.06300
C670        C  0.08904768  0.02078940  0.63449057    -0.17500
C671        C  0.06543617  0.99714323  0.68519765     0.10900
C672        C  0.09724646  0.95436629  0.70917666    -0.06300
C673        C  0.15767114  0.94832461  0.68896650    -0.17500
C674        C  0.18329029  0.97789210  0.64404292     0.10900
S675        S  0.99592424  0.02340062  0.71643594    -0.32500
S676        S  0.25889309  0.96396167  0.61952637    -0.32500
H677        H  0.26957436  0.01746190  0.59340076     0.28900
H678        H  0.00626177  0.01079347  0.77481495     0.28900
H679        H  0.06153875  0.04691315  0.61087700     0.19500
H680        H  0.18539228  0.91611614  0.70315518     0.19500
C681        C  0.01714335  0.05404981  0.25380541    -0.06300
C682        C  0.03100668  0.11575552  0.27841477    -0.17500
C683        C  0.03521771  0.16180259  0.24402643     0.10900
C684        C  0.02995252  0.14723912  0.18066078    -0.06300
C685        C  0.01987923  0.08591304  0.15391210    -0.17500
C686        C  0.01146833  0.03927032  0.18965338     0.10900
S687        S  0.05222747  0.23844017  0.28389535    -0.32500
S688        S  0.99368062  0.96409759  0.14842047    -0.32500
H689        H  0.99895861  0.93168413  0.19590125     0.28900
H690        H  0.02832981  0.22852884  0.34041855     0.28900
H691        H  0.04077862  0.12973869  0.32550534     0.19500
H692        H  0.01774094  0.07454193  0.10504149     0.19500
C693        C  0.05951347  0.68080308  0.30769405    -0.06300
C694        C  0.02010070  0.72545966  0.32880766    -0.17500
C695        C  0.04402638  0.78478840  0.35170541     0.10900
C696        C  0.10653004  0.79834061  0.35539109    -0.06300
C697        C  0.13982365  0.74801042  0.35955106    -0.17500
C698        C  0.11446683  0.68809516  0.33936407     0.10900
S699        S  0.99423656  0.83867680  0.38453950    -0.32500
S700        S  0.15748151  0.62402279  0.34173187    -0.32500
H701        H  0.11154578  0.57967710  0.31794295     0.28900
H702        H  0.03126066  0.86479730  0.43345932     0.28900
H703        H  0.97263633  0.71735798  0.31876214     0.19500
H704        H  0.18436479  0.75482913  0.37853598     0.19500
C705        C  0.00405548  0.18352264  0.52547477    -0.06300
C706        C  0.01953905  0.24418883  0.51769142    -0.17500
C707        C  0.02944161  0.28952690  0.56836132     0.10900
C708        C  0.02896253  0.27302274  0.62598719    -0.06300
C709        C  0.00347081  0.21466967  0.63357336    -0.17500
C710        C  0.98747654  0.17087645  0.58318369     0.10900
S711        S  0.03422228  0.36839758  0.56118660    -0.32500
S712        S  0.95092717  0.09730742  0.59196821    -0.32500
H713        H  0.93378620  0.11459928  0.65260406     0.28900
H714        H  0.01245862  0.35938439  0.50159949     0.28900
H715        H  0.02824927  0.25502853  0.47274241     0.19500
H716        H  0.99585915  0.20380399  0.67869986     0.19500
C717        C  0.59269953  0.39021288  0.41421928    -0.06300
C718        C  0.53952383  0.39509961  0.44852380    -0.17500
C719        C  0.53401169  0.37045928  0.50247049     0.10900
C720        C  0.57913154  0.33493520  0.51676497    -0.06300
C721        C  0.63688140  0.34917509  0.49527093    -0.17500
C722        C  0.64422124  0.37909190  0.44503032     0.10900
S723        S  0.47936856  0.39622034  0.55844891    -0.32500
S724        S  0.71877316  0.40206912  0.42307858    -0.32500
H725        H  0.73665271  0.42200167  0.48352190     0.28900
H726        H  0.44986762  0.43070976  0.52238424     0.28900
H727        H  0.50148986  0.41370675  0.43108878     0.19500
H728        H  0.67481129  0.32937264  0.51160763     0.19500
C729        C  0.70843125  0.48894195  0.09647330    -0.06300
C730        C  0.76808940  0.49728242  0.11208236    -0.17500
C731        C  0.78082962  0.52320528  0.17149433     0.10900
C732        C  0.73403839  0.51697850  0.21620546    -0.06300
C733        C  0.68247343  0.47807662  0.19767416    -0.17500
C734        C  0.67675331  0.45421497  0.13607229     0.10900
S735        S  0.85519969  0.56083401  0.18250134    -0.32500
S736        S  0.62596190  0.38852269  0.10958612    -0.32500
H737        H  0.64280441  0.38468357  0.04849547     0.28900
H738        H  0.85607837  0.59406670  0.13464620     0.28900
H739        H  0.80257572  0.49320748  0.07811773     0.19500
H740        H  0.64824012  0.46731338  0.22957209     0.19500
C741        C  0.56723331  0.04446404  0.88481963    -0.06300
C742        C  0.62560432  0.07534280  0.89625465    -0.17500
C743        C  0.67398275  0.06463212  0.85729081     0.10900
C744        C  0.66413888  0.02521384  0.80304474    -0.06300
C745        C  0.61266853  0.98411141  0.79807305    -0.17500
C746        C  0.56540978  0.99117292  0.84057284     0.10900
S747        S  0.74796069  0.10138984  0.87706523    -0.32500
S748        S  0.51303272  0.92618918  0.84633417    -0.32500
H749        H  0.55461826  0.88262889  0.82885570     0.28900
H750        H  0.73418117  0.12610659  0.93680048     0.28900
H751        H  0.63596055  0.10757660  0.93607060     0.19500
H752        H  0.61198717  0.94456975  0.76368200     0.19500
C753        C  0.28720636  0.08009395  0.01683862    -0.06300
C754        C  0.22823009  0.05266003  0.01533265    -0.17500
C755        C  0.18765452  0.06383695  0.97196967     0.10900
C756        C  0.20873846  0.09847127  0.92700960    -0.06300
C757        C  0.26242222  0.13642559  0.93844584    -0.17500
C758        C  0.30096468  0.12897140  0.98447158     0.10900
S759        S  0.11373687  0.02414529  0.96796738    -0.32500
S760        S  0.37475382  0.16958071  0.98802871    -0.32500
H761        H  0.38484707  0.16450911  0.04879386     0.28900
H762        H  0.09130913  0.05812239  0.92667448     0.28900
H763        H  0.21609976  0.01784293  0.04291776     0.19500
H764        H  0.27989579  0.16399984  0.90532614     0.19500
C765        C  0.67589952  0.10562263  0.10438237    -0.06300
C766        C  0.71170545  0.08166859  0.05545896    -0.17500
C767        C  0.77293937  0.07814118  0.06379339     0.10900
C768        C  0.79608713  0.09496916  0.12236174    -0.06300
C769        C  0.75899654  0.12085594  0.16909424    -0.17500
C770        C  0.70089633  0.13162324  0.15940297     0.10900
S771        S  0.81747746  0.04522517  0.00145906    -0.32500
S772        S  0.65688371  0.16861091  0.22121464    -0.32500
H773        H  0.61452942  0.18808861  0.18445960     0.28900
H774        H  0.87284482  0.07298023  0.02523020     0.28900
H775        H  0.69120965  0.06167745  0.01255697     0.19500
H776        H  0.77363613  0.12840702  0.21493649     0.19500
C777        C  0.95177319  0.84118979  0.91866121    -0.06300
C778        C  0.01294776  0.84827793  0.90566224    -0.17500
C779        C  0.04276533  0.79656165  0.88158711     0.10900
C780        C  0.00891883  0.73904219  0.86055428    -0.06300
C781        C  0.94712197  0.73875567  0.86167775    -0.17500
C782        C  0.92066956  0.78320992  0.90078940     0.10900
S783        S  0.12241149  0.80338421  0.89430934    -0.32500
S784        S  0.85643950  0.75683290  0.94114388    -0.32500
H785        H  0.85425596  0.69491563  0.91526464     0.28900
H786        H  0.13226443  0.74407551  0.86561283     0.28900
H787        H  0.03842785  0.89147213  0.92161962     0.19500
H788        H  0.92001373  0.69705953  0.84684317     0.19500
C789        C  0.79846857  0.39894594  0.98484142    -0.06300
C790        C  0.78058630  0.44795352  0.95934309    -0.17500
C791        C  0.82224233  0.48286807  0.92920701     0.10900
C792        C  0.87950289  0.46324312  0.91471487    -0.06300
C793        C  0.89216846  0.40688655  0.92919446    -0.17500
C794        C  0.85794322  0.38191456  0.97302262     0.10900
S795        S  0.80134522  0.55369746  0.91462520    -0.32500
S796        S  0.89529301  0.33577719  0.01756175    -0.32500
H797        H  0.94831618  0.32991972  0.98334596     0.28900
H798        H  0.85693330  0.58727741  0.92758441     0.28900
H799        H  0.73491518  0.46053292  0.96543350     0.19500
H800        H  0.93660013  0.39217328  0.91892027     0.19500
C801        C  0.16338162  0.73750450  0.05806744    -0.06300
C802        C  0.14052984  0.79548723  0.07199605    -0.17500
C803        C  0.17053046  0.84841066  0.05711459     0.10900
C804        C  0.22254992  0.84373097  0.02246352    -0.06300
C805        C  0.24319546  0.78534654  0.00344077    -0.17500
C806        C  0.21436969  0.73253114  0.02077210     0.10900
S807        S  0.14015177  0.92101599  0.07948678    -0.32500
S808        S  0.23740962  0.65932141  0.98671552    -0.32500
H809        H  0.28875541  0.68108258  0.95700188     0.28900
H810        H  0.09579339  0.89926076  0.11762043     0.28900
H811        H  0.09513409  0.79843745  0.08800548     0.19500
H812        H  0.28261600  0.78082297  0.97540962     0.19500
C813        C  0.91855190  0.74123539  0.48187702    -0.06300
C814        C  0.94246311  0.68659878  0.45846325    -0.17500
C815        C  0.00254071  0.67886884  0.46817191     0.10900
C816        C  0.04000067  0.72830075  0.49964494    -0.06300
C817        C  0.01796047  0.78565691  0.51401880    -0.17500
C818        C  0.95725447  0.79228135  0.50831178     0.10900
S819        S  0.02775180  0.60438006  0.44328298    -0.32500
S820        S  0.93095256  0.86654441  0.53522160    -0.32500
H821        H  0.98535026  0.89643358  0.55936407     0.28900
H822        H  0.98581390  0.58683729  0.39617244     0.28900
H823        H  0.91358179  0.64977133  0.43351768     0.19500
H824        H  0.04618752  0.82289439  0.53912037     0.19500
C825        C  0.44942450  0.05121811  0.28152162    -0.06300
C826        C  0.45038686  0.01228979  0.32574075    -0.17500
C827        C  0.43567423  0.03561190  0.38623065     0.10900
C828        C  0.40855706  0.09049406  0.39609672    -0.06300
C829        C  0.43847078  0.13412510  0.36424061    -0.17500
C830        C  0.45576734  0.11448395  0.30426563     0.10900
S831        S  0.44179217  0.99476261  0.44834608    -0.32500
S832        S  0.49810884  0.16779243  0.26469789    -0.32500
H833        H  0.47707613  0.14381711  0.20637791     0.28900
H834        H  0.42918932  0.04400125  0.49336212     0.28900
H835        H  0.46419779  0.96673689  0.31409732     0.19500
H836        H  0.43933895  0.18258795  0.38152511     0.19500
C837        C  0.09884026  0.43084983  0.04156752    -0.06300
C838        C  0.08142751  0.37047419  0.04945948    -0.17500
C839        C  0.11868523  0.32455136  0.02844359     0.10900
C840        C  0.17550193  0.34204280  0.00726042    -0.06300
C841        C  0.18490208  0.39736905  0.98490060    -0.17500
C842        C  0.14357906  0.44078061  0.99818847     0.10900
S843        S  0.08852497  0.24596819  0.01617336    -0.32500
S844        S  0.14563181  0.50507947  0.95750031    -0.32500
H845        H  0.18781500  0.48334089  0.91378781     0.28900
H846        H  0.13654549  0.22235565  0.98171994     0.28900
H847        H  0.03864470  0.35943857  0.07003200     0.19500
H848        H  0.22583288  0.40778982  0.96076029     0.19500
C849        C  0.41202319  0.57323457  0.76549044    -0.06300
C850        C  0.47080397  0.59743854  0.75831680    -0.17500
C851        C  0.50136565  0.63185460  0.80775926     0.10900
C852        C  0.47062773  0.64878000  0.86219540    -0.06300
C853        C  0.40912364  0.63556934  0.86488733    -0.17500
C854        C  0.38272086  0.58914510  0.82242796     0.10900
S855        S  0.58045166  0.64713798  0.80432060    -0.32500
S856        S  0.31689913  0.54629064  0.84636075    -0.32500
H857        H  0.31117772  0.57918679  0.90467632     0.28900
H858        H  0.58740956  0.61750404  0.74462097     0.28900
H859        H  0.49260138  0.58836147  0.71464769     0.19500
H860        H  0.38670958  0.64839049  0.90771269     0.19500
C861        C  0.64176518  0.04046608  0.38098803    -0.06300
C862        C  0.59465176  0.99970991  0.39600741    -0.17500
C863        C  0.58357658  0.94141864  0.36184390     0.10900
C864        C  0.61837501  0.92313119  0.31069730    -0.06300
C865        C  0.66264276  0.96567643  0.29343753    -0.17500
C866        C  0.67489769  0.02363457  0.32875360     0.10900
S867        S  0.52640363  0.89077078  0.38709655    -0.32500
S868        S  0.73239268  0.07582460  0.30644947    -0.32500
H869        H  0.70836719  0.13043608  0.33190265     0.28900
H870        H  0.55162095  0.83565468  0.36581987     0.28900
H871        H  0.56939318  0.01173426  0.43714837     0.19500
H872        H  0.68385223  0.95540106  0.25003564     0.19500
C873        C  0.97643133  0.53900443  0.62893794    -0.06300
C874        C  0.94999501  0.54244119  0.57333335    -0.17500
C875        C  0.91647164  0.49154177  0.54109385     0.10900
C876        C  0.90210157  0.43884222  0.56924316    -0.06300
C877        C  0.91661739  0.44443652  0.63143519    -0.17500
C878        C  0.95900568  0.48974358  0.65838803     0.10900
S879        S  0.90257800  0.49509375  0.46284962    -0.32500
S880        S  0.99921493  0.47509626  0.72274230    -0.32500
H881        H  0.03608614  0.52963983  0.73737410     0.28900
H882        H  0.89503155  0.55800770  0.47246667     0.28900
H883        H  0.96438829  0.58062059  0.55055169     0.19500
H884        H  0.90081241  0.40954559  0.65766730     0.19500
loop_ 
_geom_bond_atom_site_label_1 
_geom_bond_atom_site_label_2 
_geom_bond_distance 
_geom_bond_site_symmetry_2 
_ccdc_geom_bond_type 
C1            C2   1.422       .  A
C1            C6   1.448       .  A
C1          C201   1.561       .  S
C2            C3   1.400       .  A
C2            H7   1.065       .  S
C3            C4   1.395       .  A
C3          C876   1.517       .  S
C4            C5   1.374       .  A
C4            H8   1.059       .  S
C5            C6   1.462       .  A
C5          C319   1.520       .  S
C6            H9   1.082       .  S
C10          C11   1.415       .  A
C10          C15   1.461       .  A
C10         C169   1.561       .  S
C11          C12   1.397       .  A
C11          H16   1.077       .  S
C12          C13   1.382       .  A
C12         C864   1.485       .  S
C13          C14   1.404       .  A
C13          H17   1.081       .  S
C14          C15   1.457       .  A
C14         C402   1.536       .  S
C15          H18   1.081       .  S
C19          C20   1.465       .  A
C19          C24   1.413       .  A
C19         C278   1.511       .  S
C20          C21   1.457       .  A
C20          H25   1.082       .  S
C21          C22   1.386       .  A
C21         C381   1.511       .  S
C22          C23   1.360       .  A
C22          H26   1.078       .  S
C23          C24   1.381       .  A
C23         C849   1.466       .  S
C24          H27   1.087       .  S
C28          C29   1.452   1_556  A
C28          C33   1.398       .  A
C28         C292   1.522       .  S
C29          C30   1.458       .  A
C29          H34   1.082       .  S
C30          C31   1.398       .  A
C30         C479   1.516       .  S
C31          C32   1.399       .  A
C31          H35   1.080       .  S
C32          C33   1.378   1_554  A
C32         C840   1.456       .  S
C33          H36   1.087       .  S
C37          C38   1.401       .  A
C37          C42   1.451       .  A
C37         C416   1.527   1_545  S
C38          C39   1.405       .  A
C38          H43   1.081   1_545  S
C39          C40   1.388       .  A
C39         C828   1.514       .  S
C40          C41   1.395       .  A
C40          H44   1.069       .  S
C41          C42   1.452       .  A
C41         C480   1.526       .  S
C42          H45   1.082       .  S
C46          C47   1.371       .  A
C46          C51   1.485       .  A
C46         C155   1.516       .  S
C47          C48   1.349       .  A
C47          H52   1.085       .  S
C48          C49   1.388       .  A
C48         C813   1.461       .  S
C49          C50   1.437       .  A
C49          H53   1.077       .  S
C50          C51   1.478       .  A
C50         C350   1.633       .  S
C51          H54   1.063       .  S
C55          C56   1.456   1_556  A
C55          C60   1.408       .  A
C55         C385   1.526       .  S
C56          C57   1.457       .  A
C56          H61   1.082   1_554  S
C57          C58   1.393       .  A
C57         C412   1.508       .  S
C58          C59   1.381       .  A
C58          H62   1.088       .  S
C59          C60   1.388   1_554  A
C59         C804   1.476       .  S
C60          H63   1.073       .  S
N64          C69   1.338       .  A
N64          C68   1.344       .  A
N64          H96   1.034       .  S
N65          C72   1.332   1_556  A
N65          C73   1.318       .  A
N66          C71   1.340   1_455  A
N66          C70   1.354       .  A
N66          H97   1.044       .  S
N67          C74   1.343   1_556  A
N67          C75   1.333   1_455  A
C68          C76   1.376       .  A
C68          C84   1.406       .  A
C69          C85   1.412       .  A
C69          C77   1.375       .  A
C70          C78   1.386   1_455  A
C70          C87   1.429       .  A
C71          C86   1.406       .  A
C71          C79   1.372       .  A
C72          C84   1.357       .  A
C72          C80   1.377       .  A
C73          C87   1.369       .  A
C73          C81   1.387   1_455  A
C74          C82   1.374   1_455  A
C74          C85   1.372       .  A
C75          C83   1.382   1_556  A
C75          C86   1.388       .  A
C76          C77   1.394       .  A
C76          H88   1.075       .  S
C77          H89   1.073       .  S
C78          C79   1.397       .  A
C78          H90   1.082       .  S
C79          H91   1.077       .  S
C80          C81   1.351   1_454  A
C80          H92   1.076   1_455  S
C81          H93   1.075       .  S
C82          C83   1.368       .  A
C82          H94   1.080       .  S
C83          H95   1.067       .  S
C84         C801   1.480       .  S
C85         C837   1.465       .  S
C86         C792   1.472       .  S
C87         C780   1.485       .  S
C98          C99   1.386       .  A
C98         C103   1.467       .  A
C98         C165   1.506   1_545  S
C99         C100   1.378       .  A
C99         H104   1.086   1_545  S
C100        C101   1.395       .  A
C100        C768   1.465       .  S
C101        C102   1.422       .  A
C101        H105   1.071       .  S
C102        C103   1.446       .  A
C102        C197   1.542       .  S
C103        H106   1.075       .  S
N107        C112   1.361       .  A
N107        C111   1.364       .  A
N107        H139   1.042   1_545  S
N108        C115   1.334       .  A
N108        C116   1.338       .  A
N109        C114   1.325   1_554  A
N109        C113   1.317       .  A
N109        H140   1.048       .  S
N110        C117   1.330       .  A
N110        C118   1.360       .  A
C111        C119   1.375       .  A
C111        C127   1.438       .  A
C112        C128   1.432       .  A
C112        C120   1.386       .  A
C113        C121   1.385       .  A
C113        C130   1.367       .  A
C114        C129   1.384       .  A
C114        C122   1.389       .  A
C115        C127   1.393       .  A
C115        C123   1.378       .  A
C116        C130   1.406       .  A
C116        C124   1.380       .  A
C117        C125   1.394       .  A
C117        C128   1.426   1_556  A
C118        C126   1.377       .  A
C118        C129   1.424       .  A
C119        C120   1.384       .  A
C119        H131   1.068       .  S
C120        H132   1.082       .  S
C121        C122   1.382   1_554  A
C121        H133   1.083       .  S
C122        H134   1.076       .  S
C123        C124   1.377       .  A
C123        H135   1.074       .  S
C124        H136   1.078       .  S
C125        C126   1.387       .  A
C125        H137   1.077       .  S
C126        H138   1.076       .  S
C127        C825   1.504       .  S
C128        C753   1.490       .  S
C129        C741   1.532       .  S
C130        C765   1.437       .  S
C141        C142   1.402       .  A
C141        C146   1.487       .  A
C141        C305   1.587       .  S
C142        C143   1.366       .  A
C142        H147   1.073       .  S
C143        C144   1.375   1_556  A
C143        C789   1.484       .  S
C144        C145   1.408       .  A
C144        H148   1.071       .  S
C145        C146   1.498   1_554  A
C145        C186   1.554       .  S
C146        H149   1.081       .  S
O150        C165   1.229       .  A
O150       Al158   1.856       .  S
C151        C176   1.590       .  S
C151        O161   1.267       .  A
C151        O152   1.348       .  A
O152       Al154   2.214       .  S
O153        C155   1.229       .  A
O153       Al154   1.864       .  S
Al154       O162   1.900       .  S
Al154       O164   2.035       .  S
Al154       O163   1.686       .  S
C155        O168   1.302       .  A
O156        C166   1.237       .  A
O156       Al158   1.867       .  S
O157        C170   1.289       .  A
O157       Al167   1.972       .  S
Al158       O171   2.148       .  S
Al158       O168   2.026       .  S
Al158       O163   1.679       .  S
O159        C166   1.280       .  A
O159       Al167   2.035       .  S
O160        C169   1.280       .  A
O160       Al167   2.134       .  S
O161       Al167   1.900       .  S
O162        C169   1.236       .  A
O163       Al167   1.796       .  S
O164        C165   1.287       .  A
C166        C390   1.526   1_655  S
C170        C488   1.596       .  S
C170        O171   1.338       .  A
C172        C173   1.392       .  A
C172        C177   1.512       .  A
C172        C200   1.611       .  S
C173        C174   1.388       .  A
C173        H178   1.082       .  S
C174        C175   1.391       .  A
C174        C732   1.476       .  S
C175        C176   1.396       .  A
C175        H179   1.086       .  S
C176        C177   1.519       .  A
C177        H180   1.082       .  S
O181        C196   1.259       .  A
O181       Al189   1.825       .  S
C182        C459   1.564   1_655  S
C182        O192   1.254       .  A
C182        O183   1.294       .  A
O183       Al185   2.060       .  S
O184        C186   1.241       .  A
O184       Al185   1.931       .  S
Al185       O193   1.936       .  S
Al185       O195   2.179       .  S
Al185       O194   1.726       .  S
C186        O199   1.289       .  A
O187        C197   1.237       .  A
O187       Al189   1.752       .  S
O188        C201   1.244       .  A
O188       Al198   1.853       .  S
Al189       O202   2.131       .  S
Al189       O199   2.117       .  S
Al189       O194   1.785       .  S
O190        C197   1.317       .  A
O190       Al198   2.167       .  S
O191        C200   1.302       .  A
O191       Al198   2.118       .  S
O192       Al198   1.910       .  S
O193        C200   1.268       .  A
O194       Al198   1.751       .  S
O195        C196   1.325       .  A
C196        C203   1.554       .  S
C201        O202   1.288       .  A
C203        C204   1.403       .  A
C203        C208   1.471       .  A
C204        C205   1.398       .  A
C204        H209   1.071       .  S
C205        C206   1.401       .  A
C205        C717   1.497       .  S
C206        C207   1.400       .  A
C206        H210   1.084       .  S
C207        C208   1.462       .  A
C207        C469   1.553       .  S
C208        H211   1.081       .  S
C212        C213   1.422       .  A
C212        C217   1.454       .  A
C212        C288   1.542       .  S
C213        C214   1.385       .  A
C213        H218   1.073       .  S
C214        C215   1.355   1_455  A
C214        C708   1.467       .  S
C215        C216   1.379       .  A
C215        H219   1.074       .  S
C216        C217   1.455   1_655  A
C216        C323   1.498       .  S
C217        H220   1.082       .  S
N221        C226   1.351       .  A
N221        C225   1.342       .  A
N221        H253   1.042       .  S
N222        C229   1.355       .  A
N222        C230   1.353       .  A
N223        C228   1.349       .  A
N223        C227   1.334       .  A
N223        H254   1.039       .  S
N224        C231   1.331   1_455  A
N224        C232   1.333       .  A
C225        C233   1.390       .  A
C225        C241   1.419       .  A
C226        C242   1.411   1_565  A
C226        C234   1.377       .  A
C227        C235   1.380       .  A
C227        C244   1.385       .  A
C228        C243   1.415       .  A
C228        C236   1.389       .  A
C229        C241   1.405       .  A
C229        C237   1.375       .  A
C230        C244   1.415   1_565  A
C230        C238   1.384       .  A
C231        C239   1.381       .  A
C231        C242   1.402   1_655  A
C232        C240   1.382   1_455  A
C232        C243   1.395       .  A
C233        C234   1.375       .  A
C233        H245   1.063       .  S
C234        H246   1.079       .  S
C235        C236   1.370       .  A
C235        H247   1.082       .  S
C236        H248   1.079       .  S
C237        C238   1.356       .  A
C237        H249   1.072       .  S
C238        H250   1.078       .  S
C239        C240   1.390       .  A
C239        H251   1.074       .  S
C240        H252   1.082       .  S
C241        C696   1.511       .  S
C242        C681   1.504       .  S
C243        C705   1.465       .  S
C244        C669   1.473       .  S
C255        C256   1.401       .  A
C255        C260   1.492       .  A
C255        C465   1.603       .  S
C256        C257   1.357       .  A
C256        H261   1.066       .  S
C257        C258   1.377       .  A
C257        C657   1.486       .  S
C258        C259   1.406       .  A
C258        H262   1.079       .  S
C259        C260   1.508       .  A
C259        C289   1.573       .  S
C260        H263   1.065       .  S
C264        C265   1.392   1_565  A
C264        C269   1.462   1_565  A
C264        C367   1.554       .  S
C265        C266   1.408       .  A
C265        H270   1.083   1_545  S
C266        C267   1.412       .  A
C266        C756   1.490       .  S
C267        C268   1.407       .  A
C267        H271   1.085       .  S
C268        C269   1.456       .  A
C268        C293   1.550       .  S
C269        H272   1.077       .  S
O273        C288   1.251       .  A
O273       Al281   1.898       .  S
C274        C299   1.518       .  S
C274        O284   1.248       .  A
C274        O275   1.290       .  A
O275       Al277   2.055       .  S
O276        C278   1.254       .  A
O276       Al277   1.799       .  S
Al277       O285   1.794       .  S
Al277       O287   2.104       .  S
Al277       O286   1.777       .  S
C278        O291   1.294       .  A
O279        C289   1.251       .  A
O279       Al281   1.887       .  S
O280        C293   1.249       .  A
O280       Al290   1.878       .  S
Al281       O294   2.075       .  S
Al281       O291   2.086       .  S
Al281       O286   1.718       .  S
O282        C289   1.293       .  A
O282       Al290   2.106       .  S
O283        C292   1.302       .  A
O283       Al290   2.097       .  S
O284       Al290   1.896       .  S
O285        C292   1.259       .  A
O286       Al290   1.766       .  S
O287        C288   1.292       .  A
C293        O294   1.294       .  A
C295        C296   1.397       .  A
C295        C300   1.446       .  A
C295        C320   1.528       .  S
C296        C297   1.385       .  A
C296        H301   1.044       .  S
C297        C298   1.397       .  A
C297        C648   1.522       .  S
C298        C299   1.413       .  A
C298        H302   1.072       .  S
C299        C300   1.452       .  A
C300        H303   1.082       .  S
O304        C319   1.256       .  A
O304       Al312   1.866       .  S
C305        O315   1.280       .  A
C305        O306   1.298       .  A
O306       Al308   2.074       .  S
O307        C309   1.231       .  A
O307       Al308   1.825       .  S
Al308       O316   1.918       .  S
Al308       O318   2.053       .  S
Al308       O317   1.786       .  S
C309        C450   1.519       .  S
C309        O322   1.286       .  A
O310        C320   1.268       .  A
O310       Al312   1.930       .  S
O311        C324   1.258       .  A
O311       Al321   1.933       .  S
Al312       O325   2.033       .  S
Al312       O322   2.031       .  S
Al312       O317   1.815       .  S
O313        C320   1.281       .  A
O313       Al321   2.002       .  S
O314        C323   1.264       .  A
O314       Al321   1.960       .  S
O315       Al321   1.923       .  S
O316        C323   1.246       .  A
O317       Al321   1.790       .  S
O318        C319   1.315       .  A
C324        C326   1.541       .  S
C324        O325   1.289       .  A
C326        C327   1.491       .  A
C326        C331   1.398       .  A
C327        C328   1.478       .  A
C327        H332   1.074       .  S
C328        C329   1.420       .  A
C328        C355   1.584       .  S
C329        C330   1.401       .  A
C329        H333   1.083       .  S
C330        C331   1.374       .  A
C330        C633   1.501       .  S
C331        H334   1.086       .  S
O335        C350   1.230       .  A
O335       Al343   1.859       .  S
C336        C486   1.594       .  S
C336        O346   1.237       .  A
C336        O337   1.299       .  A
O337       Al339   2.144       .  S
O338        C340   1.233       .  A
O338       Al339   1.876       .  S
Al339       O347   1.861       .  S
Al339       O349   2.306       .  S
Al339       O348   1.738       .  S
C340        C446   1.593       .  S
C340        O353   1.312       .  A
O341        C351   1.251       .  A
O341       Al343   1.833       .  S
O342        C355   1.226       .  A
O342       Al352   1.773       .  S
Al343       O356   2.134       .  S
Al343       O353   2.251       .  S
Al343       O348   1.772       .  S
O344        C351   1.307       .  A
O344       Al352   2.091       .  S
O345        C354   1.312       .  A
O345       Al352   2.107       .  S
O346       Al352   1.859       .  S
O347        C354   1.260       .  A
O348       Al352   1.695       .  S
O349        C350   1.320       .  A
C351        C441   1.541       .  S
C354        C357   1.547       .  S
C355        O356   1.286       .  A
C357        C358   1.402       .  A
C357        C362   1.473       .  A
C358        C359   1.389       .  A
C358        H363   1.085       .  S
C359        C360   1.392       .  A
C359        C621   1.492       .  S
C360        C361   1.398       .  A
C360        H364   1.050       .  S
C361        C362   1.476       .  A
C361        C386   1.564       .  S
C362        H365   1.079       .  S
O366        C381   1.246       .  A
O366       Al374   1.871       .  S
C367        O377   1.274       .  A
C367        O368   1.331       .  A
O368       Al370   2.131       .  S
O369        C371   1.238       .  A
O369       Al370   1.859       .  S
Al370       O378   1.929       .  S
Al370       O380   2.036       .  S
Al370       O379   1.725       .  S
C371        C437   1.517       .  S
C371        O384   1.293       .  A
O372        C382   1.247       .  A
O372       Al374   1.933       .  S
O373        C386   1.277       .  A
O373       Al383   1.910       .  S
Al374       O387   2.145       .  S
Al374       O384   2.043       .  S
Al374       O379   1.719       .  S
O375        C382   1.272       .  A
O375       Al383   2.026       .  S
O376        C385   1.268       .  A
O376       Al383   2.025       .  S
O377       Al383   1.892       .  S
O378        C385   1.245       .  A
O379       Al383   1.798       .  S
O380        C381   1.292       .  A
C382        C430   1.534       .  S
C386        O387   1.335       .  A
C388        C389   1.452       .  A
C388        C393   1.399       .  A
C388        C417   1.533       .  S
C389        C390   1.453       .  A
C389        H394   1.080       .  S
C390        C391   1.409       .  A
C391        C392   1.413       .  A
C391        H395   1.084   1_455  S
C392        C393   1.405       .  A
C392        C693   1.511       .  S
C393        H396   1.082       .  S
O397        C412   1.269       .  A
O397       Al405   1.899       .  S
C398        C428   1.517       .  S
C398        O408   1.259       .  A
C398        O399   1.284       .  A
O399       Al401   2.034       .  S
O400        C402   1.264       .  A
O400       Al401   1.885       .  S
Al401       O409   1.940       .  S
Al401       O411   2.009       .  S
Al401       O410   1.747       .  S
C402        O415   1.278       .  A
O403        C413   1.261       .  A
O403       Al405   1.905       .  S
O404        C417   1.248       .  A
O404       Al414   1.882       .  S
Al405       O418   2.063       .  S
Al405       O415   2.049       .  S
Al405       O410   1.790       .  S
O406        C413   1.286       .  A
O406       Al414   2.045       .  S
O407        C416   1.282       .  A
O407       Al414   2.018       .  S
O408       Al414   1.884       .  S
O409        C416   1.263       .  A
O410       Al414   1.780       .  S
O411        C412   1.281       .  A
C413        C423   1.528       .  S
C417        O418   1.294       .  A
C419        C420   1.393       .  A
C419        C424   1.444       .  A
C419        C483   1.523       .  S
C420        C421   1.388       .  A
C420        H425   1.082       .  S
C421        C422   1.383       .  A
C421        C609   1.458       .  S
C422        C423   1.399       .  A
C422        H426   1.082       .  S
C423        C424   1.455       .  A
C424        H427   1.062       .  S
C428        C429   1.448       .  A
C428        C433   1.388       .  A
C429        C430   1.446       .  A
C429        H434   1.081       .  S
C430        C431   1.399       .  A
C431        C432   1.409       .  A
C431        H435   1.067       .  S
C432        C433   1.392       .  A
C432        C597   1.516       .  S
C433        H436   1.075       .  S
C437        C438   1.382       .  A
C437        C442   1.440       .  A
C438        C439   1.376       .  A
C438        H443   1.078       .  S
C439        C440   1.421       .  A
C439        C672   1.510       .  S
C440        C441   1.432   1_455  A
C440        H444   1.078   1_455  S
C441        C442   1.454   1_655  A
C442        H445   1.072       .  S
C446        C447   1.427   1_565  A
C446        C451   1.443   1_565  A
C447        C448   1.393       .  A
C447        H452   1.082   1_545  S
C448        C449   1.389       .  A
C448        C744   1.479       .  S
C449        C450   1.392       .  A
C449        H453   1.073       .  S
C450        C451   1.473       .  A
C451        H454   1.081       .  S
C455        C456   1.383       .  A
C455        C460   1.478       .  A
C455        C484   1.527       .  S
C456        C457   1.393       .  A
C456        H461   1.086       .  S
C457        C458   1.415       .  A
C457        C684   1.467       .  S
C458        C459   1.401       .  A
C458        H462   1.071   1_455  S
C459        C460   1.457       .  A
C460        H463   1.082       .  S
O464        C479   1.234       .  A
O464       Al472   1.838       .  S
C465        O475   1.268       .  A
C465        O466   1.303       .  A
O466       Al468   2.140       .  S
O467        C469   1.298       .  A
O467       Al468   1.780       .  S
Al468       O476   1.970       .  S
Al468       O478   2.068       .  S
Al468       O477   1.538       .  S
C469        O482   1.362       .  A
O470        C480   1.261       .  A
O470       Al472   1.863       .  S
O471        C484   1.244       .  A
O471       Al481   1.808       .  S
Al472       O485   2.113       .  S
Al472       O482   2.301       .  S
Al472       O477   1.792       .  S
O473        C480   1.295       .  A
O473       Al481   2.057       .  S
O474        C483   1.276       .  A
O474       Al481   1.960       .  S
O475       Al481   1.921       .  S
O476        C483   1.280       .  A
O477       Al481   1.708       .  S
O478        C479   1.297       .  A
C484        O485   1.324       .  A
C486        C487   1.502       .  A
C486        C491   1.404       .  A
C487        C488   1.504   1_556  A
C487        H492   1.082   1_556  S
C488        C489   1.403       .  A
C489        C490   1.402   1_554  A
C489        H493   1.084       .  S
C490        C491   1.401       .  A
C490        C777   1.483       .  S
C491        H494   1.087       .  S
N495        C500   1.326       .  A
N495        C499   1.318       .  A
N495        H527   1.045       .  S
N496        C503   1.343       .  A
N496        C504   1.331       .  A
N497        C502   1.340       .  A
N497        C501   1.343       .  A
N497        H528   1.038   1_556  S
N498        C505   1.349       .  A
N498        C506   1.342       .  A
C499        C507   1.391       .  A
C499        C515   1.373       .  A
C500        C516   1.378       .  A
C500        C508   1.383       .  A
C501        C509   1.386       .  A
C501        C518   1.408       .  A
C502        C517   1.392       .  A
C502        C510   1.384       .  A
C503        C515   1.378   1_556  A
C503        C511   1.364       .  A
C504        C518   1.409       .  A
C504        C512   1.398       .  A
C505        C513   1.376       .  A
C505        C516   1.412       .  A
C506        C514   1.369       .  A
C506        C517   1.396   1_554  A
C507        C508   1.379       .  A
C507        H519   1.082       .  S
C508        H520   1.081       .  S
C509        C510   1.378       .  A
C509        H521   1.080       .  S
C510        H522   1.083       .  S
C511        C512   1.367       .  A
C511        H523   1.073       .  S
C512        H524   1.078       .  S
C513        C514   1.360       .  A
C513        H525   1.056       .  S
C514        H526   1.065   1_554  S
C515        C612   1.467       .  S
C516        C729   1.517       .  S
C517        C636   1.509       .  S
C518        C852   1.458       .  S
N529        C534   1.354       .  A
N529        C533   1.344       .  A
N529        H561   1.044       .  S
N530        C537   1.355       .  A
N530        C538   1.348       .  A
N531        C536   1.353       .  A
N531        C535   1.341       .  A
N531        H562   1.044       .  S
N532        C539   1.325       .  A
N532        C540   1.328       .  A
C533        C541   1.382       .  A
C533        C549   1.408       .  A
C534        C550   1.414       .  A
C534        C542   1.384       .  A
C535        C543   1.382       .  A
C535        C552   1.398       .  A
C536        C551   1.430   1_545  A
C536        C544   1.391   1_545  A
C537        C549   1.403       .  A
C537        C545   1.380       .  A
C538        C552   1.418       .  A
C538        C546   1.387       .  A
C539        C547   1.392       .  A
C539        C550   1.390       .  A
C540        C548   1.370       .  A
C540        C551   1.394   1_545  A
C541        C542   1.386       .  A
C541        H553   1.079       .  S
C542        H554   1.081       .  S
C543        C544   1.387   1_545  A
C543        H555   1.082       .  S
C544        H556   1.082       .  S
C545        C546   1.375       .  A
C545        H557   1.081       .  S
C546        H558   1.077       .  S
C547        C548   1.386       .  A
C547        H559   1.083       .  S
C548        H560   1.069   1_545  S
C549        C720   1.492       .  S
C550        C861   1.487       .  S
C551        C624   1.493       .  S
C552        C645   1.482       .  S
N563        C568   1.326       .  A
N563        C567   1.342       .  A
N563        H595   1.041       .  S
N564        C571   1.349       .  A
N564        C572   1.330       .  A
N565        C570   1.355       .  A
N565        C569   1.344       .  A
N565        H596   1.024       .  S
N566        C573   1.335       .  A
N566        C574   1.330       .  A
C567        C575   1.387       .  A
C567        C583   1.394       .  A
C568        C584   1.387       .  A
C568        C576   1.384       .  A
C569        C577   1.376       .  A
C569        C586   1.405       .  A
C570        C585   1.424       .  A
C570        C578   1.383       .  A
C571        C583   1.389       .  A
C571        C579   1.378   1_455  A
C572        C586   1.406       .  A
C572        C580   1.397       .  A
C573        C581   1.381       .  A
C573        C584   1.391       .  A
C574        C582   1.390       .  A
C574        C585   1.407       .  A
C575        C576   1.371       .  A
C575        H587   1.082       .  S
C576        H588   1.080       .  S
C577        C578   1.381       .  A
C577        H589   1.078       .  S
C578        H590   1.076       .  S
C579        C580   1.362   1_655  A
C579        H591   1.083       .  S
C580        H592   1.073   1_455  S
C581        C582   1.382       .  A
C581        H593   1.078       .  S
C582        H594   1.082       .  S
C583        C873   1.477   1_455  S
C584        C660   1.466       .  S
C585        C600   1.474       .  S
C586        C816   1.469       .  S
C597        C598   1.406       .  A
C597        C602   1.406       .  A
C598        C599   1.406       .  A
C598        H607   1.077       .  S
C599        C600   1.416       .  A
C599        S603   1.789       .  S
C600        C601   1.397       .  A
C601        C602   1.390       .  A
C601        H608   1.066       .  S
C602        S604   1.801       .  S
S603        H606   1.405       .  S
S604        H605   1.408       .  S
C609        C610   1.401       .  A
C609        C614   1.401       .  A
C610        C611   1.374       .  A
C610        H619   1.082       .  S
C611        C612   1.401       .  A
C611        S615   1.801       .  S
C612        C613   1.399       .  A
C613        C614   1.382       .  A
C613        H620   1.077   1_554  S
C614        S616   1.774       .  S
S615        H618   1.407       .  S
S616        H617   1.405   1_554  S
C621        C622   1.400       .  A
C621        C626   1.417       .  A
C622        C623   1.412       .  A
C622        H631   1.084       .  S
C623        C624   1.432       .  A
C623        S627   1.792       .  S
C624        C625   1.377       .  A
C625        C626   1.371       .  A
C625        H632   1.081       .  S
C626        S628   1.779       .  S
S627        H630   1.382       .  S
S628        H629   1.406       .  S
C633        C634   1.398       .  A
C633        C638   1.401       .  A
C634        C635   1.414       .  A
C634        H643   1.082       .  S
C635        C636   1.431       .  A
C635        S639   1.776       .  S
C636        C637   1.383       .  A
C637        C638   1.394       .  A
C637        H644   1.068       .  S
C638        S640   1.794       .  S
S639        H642   1.407       .  S
S640        H641   1.401       .  S
C645        C646   1.388       .  A
C645        C650   1.398       .  A
C646        C647   1.380       .  A
C646        H655   1.077       .  S
C647        C648   1.422       .  A
C647        S651   1.786       .  S
C648        C649   1.414       .  A
C649        C650   1.413       .  A
C649        H656   1.081       .  S
C650        S652   1.781       .  S
S651        H654   1.407       .  S
S652        H653   1.408       .  S
C657        C658   1.418       .  A
C657        C662   1.428       .  A
C658        C659   1.403       .  A
C658        H667   1.084       .  S
C659        C660   1.407       .  A
C659        S663   1.799       .  S
C660        C661   1.394       .  A
C661        C662   1.366       .  A
C661        H668   1.081       .  S
C662        S664   1.815       .  S
S663        H666   1.405       .  S
S664        H665   1.409       .  S
C669        C670   1.411       .  A
C669        C674   1.383   1_545  A
C670        C671   1.403   1_545  A
C670        H679   1.081       .  S
C671        C672   1.412       .  A
C671        S675   1.801   1_465  S
C672        C673   1.430       .  A
C673        C674   1.378       .  A
C673        H680   1.075       .  S
C674        S676   1.807       .  S
S675        H678   1.407   1_655  S
S676        H677   1.407   1_565  S
C681        C682   1.403       .  A
C681        C686   1.427       .  A
C682        C683   1.372       .  A
C682        H691   1.071       .  S
C683        C684   1.409       .  A
C683        S687   1.803       .  S
C684        C685   1.398       .  A
C685        C686   1.406       .  A
C685        H692   1.084       .  S
C686        S688   1.789   1_445  S
S687        H690   1.408       .  S
S688        H689   1.389       .  S
C693        C694   1.406       .  A
C693        C698   1.414       .  A
C694        C695   1.398       .  A
C694        H703   1.083   1_455  S
C695        C696   1.405       .  A
C695        S699   1.773   1_455  S
C696        C697   1.413       .  A
C697        C698   1.407       .  A
C697        H704   1.079       .  S
C698        S700   1.796       .  S
S699        H702   1.402   1_655  S
S700        H701   1.408       .  S
C705        C706   1.399       .  A
C705        C710   1.403   1_455  A
C706        C707   1.398       .  A
C706        H715   1.083       .  S
C707        C708   1.397       .  A
C707        S711   1.779       .  S
C708        C709   1.404       .  A
C709        C710   1.396   1_455  A
C709        H716   1.084   1_455  S
C710        S712   1.800       .  S
S711        H714   1.406       .  S
S712        H713   1.407       .  S
C717        C718   1.409       .  A
C717        C722   1.414       .  A
C718        C719   1.404       .  A
C718        H727   1.083       .  S
C719        C720   1.406       .  A
C719        S723   1.799       .  S
C720        C721   1.399       .  A
C721        C722   1.396       .  A
C721        H728   1.084       .  S
C722        S724   1.785       .  S
S723        H726   1.408       .  S
S724        H725   1.408       .  S
C729        C730   1.375       .  A
C729        C734   1.409       .  A
C730        C731   1.386       .  A
C730        H739   1.074       .  S
C731        C732   1.450       .  A
C731        S735   1.797       .  S
C732        C733   1.405       .  A
C733        C734   1.400       .  A
C733        H740   1.076       .  S
C734        S736   1.796       .  S
S735        H738   1.395       .  S
S736        H737   1.405       .  S
C741        C742   1.428       .  A
C741        C746   1.415   1_545  A
C742        C743   1.392       .  A
C742        H751   1.065       .  S
C743        C744   1.388       .  A
C743        S747   1.809       .  S
C744        C745   1.399   1_545  A
C745        C746   1.413       .  A
C745        H752   1.071       .  S
C746        S748   1.797       .  S
S747        H750   1.403       .  S
S748        H749   1.408       .  S
C753        C754   1.402       .  A
C753        C758   1.409   1_554  A
C754        C755   1.406   1_554  A
C754        H763   1.079       .  S
C755        C756   1.413       .  A
C755        S759   1.801       .  S
C756        C757   1.408       .  A
C757        C758   1.394       .  A
C757        H764   1.083       .  S
C758        S760   1.807       .  S
S759        H762   1.408       .  S
S760        H761   1.407   1_556  S
C765        C766   1.409       .  A
C765        C770   1.379       .  A
C766        C767   1.397       .  A
C766        H775   1.083       .  S
C767        C768   1.400       .  A
C767        S771   1.798       .  S
C768        C769   1.406       .  A
C769        C770   1.370       .  A
C769        H776   1.066       .  S
C770        S772   1.815       .  S
S771        H774   1.407       .  S
S772        H773   1.406       .  S
C777        C778   1.395   1_655  A
C777        C782   1.410       .  A
C778        C779   1.408       .  A
C778        H787   1.083       .  S
C779        C780   1.441       .  A
C779        S783   1.799       .  S
C780        C781   1.382   1_455  A
C781        C782   1.379       .  A
C781        H788   1.070       .  S
C782        S784   1.790       .  S
S783        H786   1.405       .  S
S784        H785   1.402       .  S
C789        C790   1.399       .  A
C789        C794   1.425       .  A
C790        C791   1.395       .  A
C790        H799   1.084       .  S
C791        C792   1.406       .  A
C791        S795   1.761       .  S
C792        C793   1.396       .  A
C793        C794   1.390       .  A
C793        H800   1.084       .  S
C794        S796   1.803   1_556  S
S795        H798   1.402       .  S
S796        H797   1.406   1_554  S
C801        C802   1.415       .  A
C801        C806   1.405       .  A
C802        C803   1.387       .  A
C802        H811   1.076       .  S
C803        C804   1.391       .  A
C803        S807   1.800       .  S
C804        C805   1.414       .  A
C805        C806   1.396       .  A
C805        H812   1.077   1_554  S
C806        S808   1.798   1_554  S
S807        H810   1.403       .  S
S808        H809   1.406       .  S
C813        C814   1.392       .  A
C813        C818   1.419       .  A
C814        C815   1.395   1_655  A
C814        H823   1.082       .  S
C815        C816   1.419       .  A
C815        S819   1.797       .  S
C816        C817   1.395       .  A
C817        C818   1.389   1_455  A
C817        H824   1.082       .  S
C818        S820   1.809       .  S
S819        H822   1.408   1_455  S
S820        H821   1.407       .  S
C825        C826   1.417       .  A
C825        C830   1.412       .  A
C826        C827   1.415       .  A
C826        H835   1.075   1_545  S
C827        C828   1.394       .  A
C827        S831   1.792   1_545  S
C828        C829   1.410       .  A
C829        C830   1.403       .  A
C829        H836   1.083       .  S
C830        S832   1.788       .  S
S831        H834   1.409   1_565  S
S832        H833   1.402       .  S
C837        C838   1.401       .  A
C837        C842   1.411   1_554  A
C838        C839   1.393       .  A
C838        H847   1.081       .  S
C839        C840   1.394       .  A
C839        S843   1.795       .  S
C840        C841   1.398   1_554  A
C841        C842   1.390       .  A
C841        H848   1.082       .  S
C842        S844   1.811       .  S
S843        H846   1.403   1_554  S
S844        H845   1.408       .  S
C849        C850   1.393       .  A
C849        C854   1.432       .  A
C850        C851   1.393       .  A
C850        H859   1.083       .  S
C851        C852   1.404       .  A
C851        S855   1.775       .  S
C852        C853   1.384       .  A
C853        C854   1.383       .  A
C853        H860   1.084       .  S
C854        S856   1.803       .  S
S855        H858   1.405       .  S
S856        H857   1.401       .  S
C861        C862   1.401   1_545  A
C861        C866   1.392       .  A
C862        C863   1.399       .  A
C862        H871   1.082   1_565  S
C863        C864   1.400       .  A
C863        S867   1.774       .  S
C864        C865   1.401       .  A
C865        C866   1.406   1_565  A
C865        H872   1.075       .  S
C866        S868   1.775       .  S
S867        H870   1.404       .  S
S868        H869   1.404       .  S
C873        C874   1.404       .  A
C873        C878   1.390       .  A
C874        C875   1.403       .  A
C874        H883   1.081       .  S
C875        C876   1.427       .  A
C875        S879   1.800       .  S
C876        C877   1.419       .  A
C877        C878   1.390       .  A
C877        H884   1.078       .  S
C878        S880   1.800       .  S
S879        H882   1.405       .  S
S880        H881   1.401   1_655  S
