geometry optimzed in LAMMPS
_audit_creation_date              2020-11-30 
_audit_creation_method            'lammps2cif' 
_symmetry_space_group_name_H-M    'P1' 
_symmetry_Int_Tables_number       1 
_symmetry_cell_setting            triclinic 
loop_ 
_symmetry_equiv_pos_as_xyz 
  x,y,z 
_cell_length_a                    29.23417634 
_cell_length_b                    29.529529186065602 
_cell_length_c                    39.748774863626245 
_cell_angle_alpha                 90.02896981143925 
_cell_angle_beta                  90.16802169654093 
_cell_angle_gamma                 119.95391927448914 
loop_ 
_atom_site_label 
_atom_site_type_symbol 
_atom_site_fract_x 
_atom_site_fract_y 
_atom_site_fract_z 
_atom_site_charge 
O1          O  0.46529553  0.39059144  0.32088644    -0.75500
O2          O  0.40284132  0.34728282  0.28135803    -0.54400
C3          C  0.42045558  0.35245267  0.31143732     0.78200
O4          O  0.50633785  0.60390271  0.33451249    -0.60100
O5          O  0.57477088  0.64968364  0.29858038    -0.53100
C6          C  0.55196495  0.64394946  0.32687826     0.70200
O7          O  0.36020037  0.43729356  0.32038764    -0.74700
O8          O  0.33872585  0.38115028  0.27617480    -0.55200
C9          C  0.32935133  0.39318627  0.30530957     0.76200
O10         O  0.61359371  0.53925179  0.32314154    -0.59800
O11         O  0.63580433  0.61449584  0.29516865    -0.52900
C12         C  0.64104694  0.58930783  0.31972632     0.72800
Zr13       Zr  0.53953456  0.46537748  0.29380511     2.54700
O14         O  0.56895341  0.44036046  0.34435012    -0.80400
O15         O  0.58706882  0.42301716  0.27275713    -0.93800
Zr16       Zr  0.43948031  0.52238376  0.30327887     2.64700
O17         O  0.41419159  0.51716244  0.36213798    -0.98800
O18         O  0.38588919  0.56328728  0.29448296    -0.80800
O19         O  0.45792161  0.45753040  0.29085688    -0.84200
O20         O  0.52686151  0.53726629  0.30293551    -2.18900
O21         O  0.62779014  0.56983277  0.17990225    -0.67600
O22         O  0.64260999  0.62813253  0.22167906    -0.52100
C23         C  0.65532958  0.61579720  0.19393783     0.71200
O24         O  0.38023768  0.46574966  0.16944625    -0.60500
O25         O  0.35150417  0.39216117  0.20038076    -0.52500
C26         C  0.34999515  0.41627398  0.17409962     0.73000
O27         O  0.51242047  0.62606547  0.18134029    -0.71900
O28         O  0.57438683  0.66342421  0.22212590    -0.50500
C29         C  0.55795908  0.66201416  0.19204130     0.74400
O30         O  0.47147717  0.40897374  0.16302977    -0.67200
O31         O  0.42173285  0.35606367  0.20463775    -0.54400
C32         C  0.43198121  0.36541188  0.17343837     0.72800
Zr33       Zr  0.54432806  0.48422369  0.19429275     2.77500
O34         O  0.56278482  0.48548277  0.13444056    -0.97900
O35         O  0.59679428  0.44132592  0.19800852    -0.78800
Zr36       Zr  0.44442920  0.54066470  0.20301702     2.70100
O37         O  0.41925779  0.56287309  0.14967078    -0.80000
O38         O  0.38432944  0.57111917  0.21967692    -0.99100
Zr39       Zr  0.41740299  0.41567430  0.24309921     2.21500
Zr40       Zr  0.56599388  0.59111325  0.25506199     2.11100
O41         O  0.53251078  0.55657873  0.20056121    -2.47800
O42         O  0.46172955  0.47357795  0.20180274    -0.79800
O43         O  0.58378274  0.52133751  0.24750872    -0.72000
O44         O  0.39961033  0.48566276  0.24983675    -2.33000
O45         O  0.50381212  0.42595513  0.24085260    -2.29200
O46         O  0.47954301  0.58011159  0.25650470    -0.73800
H47         H  0.54200641  0.55179228  0.32449078     0.78200
H48         H  0.36235868  0.47382767  0.24938893     0.79300
H49         H  0.55160300  0.57735026  0.18154867     0.81500
H50         H  0.50326288  0.39309780  0.23816444     0.79200
H51         H  0.34979483  0.53606803  0.30095018     0.42200
H52         H  0.39948637  0.60633742  0.20956002     0.41200
H53         H  0.44324280  0.56111500  0.13284866     0.40800
H54         H  0.56136408  0.51603519  0.12548147     0.38800
H55         H  0.63170452  0.46734299  0.18894695     0.41900
H56         H  0.56934209  0.38784282  0.28309243     0.36700
H57         H  0.55584014  0.40243646  0.34212646     0.42800
H58         H  0.44482808  0.52065349  0.37502628     0.39200
H59         H  0.60050237  0.49546887  0.13317524     0.44100
H60         H  0.62203430  0.44178054  0.28392228     0.42900
H61         H  0.41398701  0.55007909  0.36657638     0.43000
H62         H  0.35179571  0.54922977  0.20646900     0.43400
O63         O  0.04444638  0.42087320  0.32383835    -0.75500
O64         O  0.03170218  0.37620241  0.27560789    -0.54400
C65         C  0.03724452  0.37972278  0.30731694     0.78200
O66         O  0.90182808  0.52353097  0.32268851    -0.60100
O67         O  0.96032566  0.59958942  0.29719283    -0.53100
C68         C  0.92682662  0.57396745  0.32029885     0.70200
O69         O  0.90031753  0.37567245  0.32008547    -0.74700
O70         O  0.92568276  0.33444688  0.28284285    -0.55200
C71         C  0.90991660  0.33913326  0.31205998     0.76200
O72         O  0.07172617  0.59186599  0.33408059    -0.59800
O73         O  0.07360823  0.63832780  0.28949676    -0.52900
C74         C  0.07299966  0.63289858  0.32113601     0.72800
Zr75       Zr  0.05969899  0.50932536  0.30573402     2.54700
O76         O  0.07518679  0.50920153  0.36593895    -0.80400
O77         O  0.15507005  0.54706396  0.30342759    -0.93800
Zr78       Zr  0.90308374  0.45045132  0.29230719     2.64700
O79         O  0.84296461  0.41431929  0.33987043    -0.98800
O80         O  0.81480088  0.41472160  0.26855849    -0.80800
O81         O  0.97745831  0.44329750  0.29124095    -0.84200
O82         O  0.98667331  0.52327898  0.30410739    -2.18900
O83         O  0.09740614  0.61629208  0.18495363    -0.67600
O84         O  0.05787152  0.64788170  0.21946224    -0.52100
C85         C  0.08274259  0.64970811  0.19261047     0.71200
O86         O  0.92875379  0.39768080  0.16114330    -0.60500
O87         O  0.92169654  0.34323833  0.20275194    -0.52500
C88         C  0.92527767  0.35442819  0.17154981     0.73000
O89         O  0.92820332  0.55553212  0.17736305    -0.71900
O90         O  0.95019178  0.60217107  0.22564016    -0.50500
C91         C  0.93882952  0.59752759  0.19440541     0.74400
O92         O  0.07632163  0.45662407  0.17490294    -0.67200
O93         O  0.02940705  0.38146152  0.20437809    -0.54400
C94         C  0.05859917  0.40744725  0.17957982     0.72800
Zr95       Zr  0.07971046  0.53000830  0.20641215     2.77500
O96         O  0.13115188  0.54977653  0.15473821    -0.97900
O97         O  0.16960873  0.56618573  0.22737817    -0.78800
Zr98       Zr  0.92340106  0.46899717  0.19241670     2.70100
O99         O  0.90743865  0.47282601  0.13260059    -0.80000
O100        O  0.82734000  0.42114341  0.19263382    -0.99100
Zr101      Zr  0.98062325  0.40285871  0.24379369     2.21500
Zr102      Zr  0.00345500  0.57602068  0.25515956     2.11100
O103        O  0.00656096  0.54307372  0.20074723    -2.47800
O104        O  0.99620410  0.46055244  0.20187954    -0.79800
O105        O  0.07026455  0.55771333  0.25821406    -0.72000
O106        O  0.90353135  0.41129512  0.23964948    -2.33000
O107        O  0.06795661  0.47463419  0.25302243    -2.29200
O108        O  0.91685982  0.50498859  0.24509542    -0.73800
H109        H  0.98545712  0.53668402  0.32585436     0.78200
H110        H  0.87162459  0.37798325  0.23636528     0.79300
H111        H  0.00958659  0.56330627  0.18111965     0.81500
H112        H  0.09489097  0.46468107  0.25349215     0.79200
H113        H  0.79537877  0.37811223  0.27653999     0.42200
H114        H  0.81750306  0.44866807  0.19105507     0.41200
H115        H  0.94302762  0.49011192  0.12238198     0.40800
H116        H  0.10553201  0.54210843  0.13625687     0.38800
H117        H  0.18342900  0.54607112  0.21544383     0.41900
H118        H  0.16198412  0.52277910  0.31677167     0.36700
H119        H  0.04154556  0.50203525  0.37641352     0.42800
H120        H  0.86530248  0.43022772  0.36002565     0.39200
H121        H  0.15456490  0.58819396  0.15429875     0.44100
H122        H  0.16913919  0.57898499  0.31747711     0.42900
H123        H  0.82020771  0.43030169  0.33866980     0.43000
H124        H  0.81732352  0.40331520  0.17050516     0.43400
O125        O  0.37674024  0.90623623  0.31859385    -0.75500
O126        O  0.34040921  0.93187209  0.27775217    -0.54400
C127        C  0.33983788  0.91381798  0.30697833     0.78200
O128        O  0.61298594  0.06763565  0.33282979    -0.60100
O129        O  0.64768320  0.03097021  0.29858702    -0.53100
C130        C  0.64749978  0.05347859  0.32627190     0.70200
O131        O  0.45490906  0.05919209  0.33196797    -0.74700
O132        O  0.39048946  0.03345805  0.29253392    -0.55200
C133        C  0.40899300  0.05032394  0.32211100     0.76200
O134        O  0.52482569  0.89440854  0.31738524    -0.59800
O135        O  0.59479165  0.92970617  0.28188273    -0.52900
C136        C  0.57247559  0.90693296  0.30925431     0.72800
Zr137      Zr  0.45396597  0.90701505  0.29328672     2.54700
O138        O  0.43414410  0.86702847  0.34883866    -0.80400
O139        O  0.40182500  0.81558249  0.27689091    -0.93800
Zr140      Zr  0.53321276  0.06284075  0.30614853     2.64700
O141        O  0.54163121  0.08885594  0.36511531    -0.98800
O142        O  0.57682541  0.15717931  0.29943057    -0.80800
O143        O  0.45826204  0.98624943  0.29352800    -0.84200
O144        O  0.53578341  0.98455546  0.30175708    -2.18900
O145        O  0.54420799  0.92197759  0.16992007    -0.67600
O146        O  0.61273483  0.95718343  0.20706871    -0.52100
C147        C  0.59234042  0.93618041  0.17847338     0.71200
O148        O  0.47318130  0.08002661  0.17616906    -0.60500
O149        O  0.40879123  0.05723385  0.21456130    -0.52500
C150        C  0.42790806  0.07286422  0.18519286     0.73000
O151        O  0.62950591  0.09318194  0.18527027    -0.71900
O152        O  0.66178296  0.05816419  0.22273012    -0.50500
C153        C  0.66400274  0.08077720  0.19487795     0.74400
O154        O  0.39777685  0.93263958  0.16375058    -0.67200
O155        O  0.35554298  0.95714564  0.20096906    -0.54400
C156        C  0.36047408  0.94217720  0.17144221     0.72800
Zr157      Zr  0.46727952  0.92481794  0.19467674     2.77500
O158        O  0.44461367  0.88436812  0.13931523    -0.97900
O159        O  0.41735665  0.83145890  0.20606358    -0.78800
Zr160      Zr  0.54581889  0.08135895  0.20760098     2.70100
O161        O  0.57277185  0.13319067  0.15625439    -0.80000
O162        O  0.58450998  0.17047615  0.22850747    -0.99100
Zr163      Zr  0.41622324  0.99435947  0.24808954     2.21500
Zr164      Zr  0.58549675  0.99425260  0.25192622     2.11100
O165        O  0.54893195  0.00342772  0.20020456    -2.47800
O166        O  0.46988849  0.00209775  0.20519116    -0.79800
O167        O  0.50486640  0.91311772  0.24481864    -0.72000
O168        O  0.49569588  0.07576404  0.25620176    -2.33000
O169        O  0.41327298  0.91238339  0.24245467    -2.29200
O170        O  0.58675086  0.07535747  0.25805779    -0.73800
H171        H  0.55066590  0.98082910  0.32241091     0.78200
H172        H  0.48916920  0.10471299  0.25814541     0.79300
H173        H  0.56852847  0.00748105  0.18003787     0.81500
H174        H  0.37776719  0.88362603  0.23962246     0.79200
H175        H  0.55205631  0.16698122  0.30955576     0.42200
H176        H  0.62274783  0.18607296  0.22401754     0.41200
H177        H  0.56848282  0.10817894  0.13824583     0.40800
H178        H  0.46687964  0.91295501  0.12368163     0.38800
H179        H  0.44363491  0.81974620  0.20426694     0.41900
H180        H  0.36760698  0.80296783  0.28843264     0.36700
H181        H  0.45230904  0.89676762  0.36466272     0.42800
H182        H  0.54355689  0.06100379  0.37778992     0.39200
H183        H  0.45858336  0.85997040  0.13848939     0.44100
H184        H  0.41863116  0.79822362  0.28885369     0.42900
H185        H  0.57735889  0.11991543  0.36722585     0.43000
H186        H  0.57248255  0.18808429  0.21250303     0.43400
C187        C  0.05970673  0.12999531  0.36626080     0.02900
C188        C  0.11537833  0.16115301  0.35968919    -0.13200
C189        C  0.14045483  0.21666119  0.35739290     0.00400
C190        C  0.11043025  0.24043631  0.36090284    -0.11800
C191        C  0.05603349  0.21209911  0.36271403     0.02900
C192        C  0.03008426  0.15660912  0.36455661    -0.11200
H193        H  0.13966750  0.14301684  0.36013388     0.08500
H194        H  0.12987941  0.28270016  0.35825411     0.06000
H195        H  0.98781870  0.13508014  0.36860254     0.05900
C196        C  0.11419930  0.22356227  0.06010051     0.02900
C197        C  0.16950875  0.25221138  0.06280440    -0.13200
C198        C  0.19496650  0.30445896  0.07371884     0.00400
C199        C  0.16540655  0.32908204  0.07893670    -0.11800
C200        C  0.11049691  0.29988603  0.07989922     0.02900
C201        C  0.08475317  0.24751445  0.06920835    -0.11200
H202        H  0.19240415  0.23320178  0.05849819     0.08500
H203        H  0.18484903  0.36821871  0.08960842     0.06000
H204        H  0.04233105  0.22544310  0.06887716     0.05900
C205        C  0.09671890  0.86604495  0.06243359     0.02900
C206        C  0.07051745  0.81752766  0.07930601    -0.13200
C207        C  0.10025919  0.80145739  0.09880238     0.00400
C208        C  0.15491184  0.83219798  0.10076572    -0.11800
C209        C  0.18097233  0.88200188  0.08750874     0.02900
C210        C  0.15231719  0.89895672  0.06797049    -0.11200
H211        H  0.02794758  0.79345218  0.07808104     0.08500
H212        H  0.17688895  0.81945423  0.11645236     0.06000
H213        H  0.17319332  0.93850637  0.05834616     0.05900
C214        C  0.89714271  0.09367522  0.08941739     0.02900
C215        C  0.92772923  0.14872834  0.09287514    -0.13200
C216        C  0.90278117  0.17870210  0.09845208     0.00400
C217        C  0.84796386  0.15299154  0.10033670    -0.11800
C218        C  0.81862059  0.09873720  0.10207135     0.02900
C219        C  0.84266890  0.06894701  0.09554771    -0.11200
H220        H  0.97002879  0.16753096  0.09158312     0.08500
H221        H  0.82891859  0.17531057  0.10697357     0.06000
H222        H  0.81937625  0.02672986  0.09638403     0.05900
C223        C  0.90334194  0.12544343  0.43983706     0.02900
C224        C  0.84736550  0.09327976  0.43490989    -0.13200
C225        C  0.81656898  0.11387014  0.42197383     0.00400
C226        C  0.84152549  0.16688359  0.41524632    -0.11800
C227        C  0.89637716  0.19577275  0.41275373     0.02900
C228        C  0.92797457  0.17623380  0.42618853    -0.11200
H229        H  0.82768750  0.05180942  0.44016452     0.08500
H230        H  0.81845709  0.18265725  0.40404927     0.06000
H231        H  0.97050408  0.19904679  0.42475219     0.05900
C232        C  0.22379620  0.12331343  0.43652033     0.02900
C233        C  0.24846422  0.09289403  0.42926757    -0.13200
C234        C  0.29588290  0.11421394  0.41081063     0.00400
C235        C  0.31886561  0.16561406  0.40035047    -0.11800
C236        C  0.29252882  0.19366540  0.40366849     0.02900
C237        C  0.24532744  0.17317598  0.42202853    -0.11200
H238        H  0.23013855  0.05232561  0.43682196     0.08500
H239        H  0.35448891  0.18173643  0.38521575     0.06000
H240        H  0.22478352  0.19480398  0.42418102     0.05900
C241        C  0.09398009  0.89077416  0.40800923     0.02900
C242        C  0.14810426  0.91678796  0.40007990    -0.13200
C243        C  0.17250761  0.88795495  0.39148577     0.00400
C244        C  0.14454018  0.83370652  0.39359490    -0.11800
C245        C  0.08982622  0.80674405  0.39622930     0.02900
C246        C  0.06391297  0.83559777  0.40327183    -0.11200
H247        H  0.17074800  0.95913269  0.39988250     0.08500
H248        H  0.16428443  0.81231067  0.38626185     0.06000
H249        H  0.02151829  0.81575709  0.40517533     0.05900
C250        C  0.20939714  0.10224896  0.08307837     0.02900
C251        C  0.23982602  0.07830071  0.08933962    -0.13200
C252        C  0.29302611  0.10858840  0.09858162     0.00400
C253        C  0.31726338  0.16275820  0.09864933    -0.11800
C254        C  0.28756802  0.18754064  0.09566590     0.02900
C255        C  0.23295569  0.15708876  0.08789925    -0.11200
H256        H  0.22157501  0.03610542  0.08853767     0.08500
H257        H  0.35807695  0.18530209  0.10701521     0.06000
H258        H  0.20911631  0.17551294  0.08609567     0.05900
O259        O  0.06804561  0.13084778  0.06889794    -0.86700
O260        O  0.01407435  0.03842913  0.39211767    -0.86900
O261        O  0.14284599  0.12045045  0.45710151    -0.88500
O262        O  0.98406272  0.12184710  0.45655012    -0.87300
O263        O  0.90127295  0.06067161  0.47354608    -0.86900
O264        O  0.16283611  0.05714026  0.47113830    -0.88300
O265        O  0.06291321  0.11619027  0.42089318    -0.86700
O266        O  0.08662832  0.16480332  0.01513173    -0.86300
Zr267      Zr  0.04949579  0.09325967  0.47657131     2.84300
O268        O  0.96795855  0.02655859  0.45630601    -1.08300
O269        O  0.07905704  0.06183106  0.01955304    -1.09000
C270        C  0.08776867  0.16929379  0.04743426     1.06400
C271        C  0.04402733  0.09035411  0.39400526     1.06300
C272        C  0.17362773  0.09987895  0.45652123     1.09300
C273        C  0.93260259  0.10229306  0.45769393     1.07100
H274        H  0.08122444  0.03341468  0.43589853     0.32700
O275        O  0.05768141  0.02353231  0.45483214    -1.29300
H276        H  0.98696798  0.09255539  0.02618952     0.32300
O277        O  0.99116434  0.06324165  0.02015845    -1.30900
O278        O  0.93105532  0.86192982  0.43163957    -0.86700
O279        O  0.98247494  0.95575408  0.10917538    -0.88200
O280        O  0.09493637  0.94144146  0.45379847    -0.86800
O281        O  0.84620920  0.94879627  0.45704957    -0.86800
O282        O  0.89533271  0.03908259  0.04649724    -0.86500
O283        O  0.15389783  0.04561712  0.04105106    -0.86400
O284        O  0.01699585  0.86694742  0.04292721    -0.86700
O285        O  0.86187981  0.86728559  0.04716920    -0.86200
O286        O  0.09929587  0.92831849  0.02545036    -0.87200
O287        O  0.83934057  0.92775140  0.03082450    -0.86400
O288        O  0.03395327  0.92481705  0.41200735    -0.86800
O289        O  0.11514299  0.06919684  0.08257313    -0.86500
O290        O  0.96064673  0.06412495  0.08646553    -0.86200
O291        O  0.88426077  0.92586746  0.41480343    -0.86600
O292        O  0.91599322  0.82600355  0.48492159    -0.86900
O293        O  0.94707894  0.87710603  0.08069330    -0.88200
Zr294      Zr  0.97680382  0.95818050  0.43377737     2.83100
Zr295      Zr  0.02105972  0.03355192  0.06617758     2.83500
Zr296      Zr  0.08910611  0.99410855  0.99796603     2.84100
Zr297      Zr  0.91142434  0.99428387  0.00077631     2.83400
Zr298      Zr  0.95317013  0.89665087  0.02400443     2.84200
O299        O  0.94162412  0.96458581  0.04507280    -1.08800
O300        O  0.00689247  0.92697058  0.47908424    -1.08300
C301        C  0.91353379  0.82302816  0.45251426     1.06400
C302        C  0.95854344  0.90381141  0.10760197     1.09000
C303        C  0.07249541  0.92092848  0.42536661     1.06500
C304        C  0.84422769  0.92594466  0.42893819     1.06900
C305        C  0.91896164  0.06293038  0.07384462     1.06500
C306        C  0.15565237  0.07011263  0.06837767     1.06000
C307        C  0.06826088  0.88700177  0.04185599     1.06500
C308        C  0.83056880  0.88700838  0.04728466     1.06000
H309        H  0.04783632  0.95655467  0.06274908     0.32700
O310        O  0.03302224  0.96633551  0.04440529    -1.29900
H311        H  0.88531014  0.89688521  0.47524975     0.32700
O312        O  0.91908451  0.92648188  0.48097388    -1.31300
C313        C  0.78142652  0.86555196  0.06814246     0.02900
C314        C  0.75233778  0.81326005  0.07944451    -0.13200
C315        C  0.70249363  0.79576096  0.09456840     0.00400
C316        C  0.68181616  0.82906812  0.09703890    -0.11800
C317        C  0.71377866  0.88213526  0.09253418     0.02900
C318        C  0.76316783  0.90058920  0.07742272    -0.11200
H319        H  0.76806585  0.78714745  0.07685399     0.08500
H320        H  0.64380643  0.81514031  0.10918579     0.06000
H321        H  0.78739839  0.94216719  0.07318595     0.05900
C322        C  0.79042371  0.89700979  0.41399901     0.02900
C323        C  0.76252788  0.84192750  0.40866749    -0.13200
C324        C  0.70638221  0.81469324  0.40716175     0.00400
C325        C  0.68043889  0.84263117  0.41353550    -0.11800
C326        C  0.70739332  0.89637170  0.40818833     0.02900
C327        C  0.76244306  0.92402846  0.41083218    -0.11200
H328        H  0.78376856  0.82099736  0.40574977     0.08500
H329        H  0.63764461  0.82188774  0.41139564     0.06000
H330        H  0.78351125  0.96629496  0.40919784     0.05900
C331        C  0.93795303  0.86555391  0.13623473     0.02900
C332        C  0.88204362  0.83959599  0.14123455    -0.13200
C333        C  0.85283352  0.78506987  0.14773875     0.00400
C334        C  0.87889678  0.75705793  0.15070541    -0.11800
C335        C  0.93311492  0.78054204  0.14869831     0.02900
C336        C  0.96325267  0.83509023  0.14181215    -0.11200
H337        H  0.86075300  0.86023416  0.13638840     0.08500
H338        H  0.85616582  0.71553780  0.15642603     0.06000
H339        H  0.00520526  0.85239824  0.13732926     0.05900
C340        C  0.88577205  0.77039857  0.43813071     0.02900
C341        C  0.91261652  0.74310648  0.43066108    -0.13200
C342        C  0.88591728  0.69493736  0.41373385     0.00400
C343        C  0.83232930  0.67305233  0.40669119    -0.11800
C344        C  0.80631682  0.70093198  0.41256400     0.02900
C345        C  0.83263315  0.74927673  0.42886736    -0.11200
H346        H  0.95412468  0.76020078  0.43639493     0.08500
H347        H  0.81252836  0.63710682  0.39212969     0.06000
H348        H  0.81266786  0.77128873  0.43300139     0.05900
C349        C  0.67466162  0.93286350  0.16617083    -0.09400
C350        C  0.62815263  0.93044048  0.15390750     0.06800
C351        C  0.61933745  0.92518147  0.11859237    -0.03100
C352        C  0.65315526  0.91726740  0.09749503    -0.07600
C353        C  0.69661558  0.91509459  0.11042616     0.05900
C354        C  0.70847686  0.92534249  0.14493070    -0.02600
Br355      Br  0.76672899  0.92241511  0.16502863    -0.02300
H356        H  0.68389829  0.93838716  0.19278738     0.09800
H357        H  0.64312944  0.90870038  0.07110113     0.07900
Br358      Br  0.56252089  0.92792132  0.09655806    -0.02700
C359        C  0.77979932  0.07563660  0.15715273    -0.09400
C360        C  0.77126747  0.07836267  0.12278987     0.06800
C361        C  0.72754698  0.08222217  0.11209478    -0.03100
C362        C  0.69381681  0.08471890  0.13592629    -0.07600
C363        C  0.70431023  0.08550073  0.17061203     0.05900
C364        C  0.74838320  0.08137711  0.18094785    -0.02600
Br365      Br  0.77320754  0.09075946  0.22645326    -0.02300
H366        H  0.81511359  0.07557628  0.16554648     0.09800
H367        H  0.65952643  0.08633590  0.12721017     0.07900
Br368      Br  0.71508926  0.08771999  0.06529850    -0.02700
C369        C  0.68323004  0.07835494  0.38548379    -0.09400
C370        C  0.68762212  0.06120755  0.35311428     0.06800
C371        C  0.72974760  0.05091861  0.34792804    -0.03100
C372        C  0.76573352  0.05891016  0.37387663    -0.07600
C373        C  0.76466914  0.08173202  0.40452691     0.05900
C374        C  0.72170512  0.08983582  0.41053083    -0.02600
Br375      Br  0.71678317  0.12122501  0.45156219    -0.02300
H376        H  0.65116310  0.08555301  0.39099602     0.09800
H377        H  0.79886574  0.05326664  0.36850050     0.07900
Br378      Br  0.74706531  0.03346646  0.30528770    -0.02700
C379        C  0.59674912  0.90625930  0.36899905    -0.09400
C380        C  0.60695713  0.90270690  0.33476390     0.06800
C381        C  0.65538660  0.90610402  0.32581918    -0.03100
C382        C  0.69198181  0.91331664  0.35074428    -0.07600
C383        C  0.68041854  0.91392290  0.38489240     0.05900
C384        C  0.63276021  0.91120356  0.39394671    -0.02600
Br385      Br  0.61454262  0.91101946  0.44025204    -0.02300
H386        H  0.56084796  0.90563495  0.37648684     0.09800
H387        H  0.72767401  0.91320816  0.34354958     0.07900
Br388      Br  0.67341903  0.89782999  0.28047246    -0.02700
C389        C  0.34869241  0.07949721  0.17391565    -0.09400
C390        C  0.39362191  0.08013677  0.16089993     0.06800
C391        C  0.40072048  0.08274746  0.12553060    -0.03100
C392        C  0.36438917  0.08704397  0.10459980    -0.07600
C393        C  0.32017188  0.08698318  0.11815293     0.05900
C394        C  0.31210109  0.08207178  0.15308148    -0.04300
Br395      Br  0.25414958  0.08321900  0.17458056    -0.02300
H396        H  0.34154595  0.07711460  0.20075602     0.09800
H397        H  0.37169072  0.09250539  0.07779564     0.07900
Br398      Br  0.45810859  0.08064962  0.10369630    -0.02700
C399        C  0.28177003  0.94979082  0.15414242    -0.09400
C400        C  0.32034323  0.93645649  0.14520127     0.06800
C401        C  0.31797846  0.91760894  0.11191329    -0.03100
C402        C  0.27548566  0.90758460  0.09055358    -0.07600
C403        C  0.23490315  0.91641426  0.10106467     0.05900
C404        C  0.24007417  0.94048017  0.13243203    -0.02600
Br405      Br  0.18628626  0.95398862  0.14846912    -0.02300
H406        H  0.28234740  0.96555051  0.17883374     0.09800
H407        H  0.27160332  0.88830075  0.06664769     0.07900
Br408      Br  0.36791634  0.90049039  0.09365280    -0.02700
C409        C  0.30761536  0.92229995  0.36301124    -0.09400
C410        C  0.29655005  0.90691403  0.32908334     0.06800
C411        C  0.24659651  0.89357941  0.31567033    -0.03100
C412        C  0.20952450  0.89658735  0.33591146    -0.07600
C413        C  0.21950772  0.90912986  0.37017112     0.05900
C414        C  0.26919801  0.92292615  0.38364349    -0.02600
Br415      Br  0.28504182  0.94113509  0.43014683    -0.02300
H416        H  0.34631863  0.93433236  0.37342197     0.09800
H417        H  0.17041565  0.88359807  0.32574631     0.07900
Br418      Br  0.22408959  0.86551320  0.27111147    -0.02700
C419        C  0.39555862  0.07883572  0.37919029    -0.09400
C420        C  0.37538176  0.05965973  0.34672937     0.06800
C421        C  0.32377940  0.05035630  0.33902356    -0.03100
C422        C  0.29507446  0.06083725  0.36300076    -0.07600
C423        C  0.31683062  0.08303564  0.39435279     0.05900
C424        C  0.36744197  0.09139928  0.40243008    -0.02600
Br425      Br  0.40163188  0.12433419  0.44387702    -0.02300
H426        H  0.43458617  0.08645771  0.38622801     0.09800
H427        H  0.25728436  0.05647434  0.35579397     0.07900
Br428      Br  0.29055258  0.02854249  0.29560889    -0.02700
C429        C  0.08783516  0.73350231  0.17877204    -0.09400
C430        C  0.08605323  0.68775117  0.16724141     0.06800
C431        C  0.07576473  0.67477564  0.13262490    -0.03100
C432        C  0.07295017  0.70987104  0.11023305    -0.07600
C433        C  0.07789471  0.75682602  0.12179539     0.05900
C434        C  0.08302260  0.76728713  0.15659817    -0.02600
Br435      Br  0.08944751  0.83030024  0.17475855    -0.02300
H436        H  0.09307418  0.74320792  0.20530086     0.09800
H437        H  0.06971206  0.70178956  0.08346907     0.07900
Br438      Br  0.06208968  0.60917474  0.11406415    -0.02700
C439        C  0.94456960  0.70413375  0.13395959    -0.09400
C440        C  0.95323762  0.74425314  0.15700658     0.06800
C441        C  0.95806059  0.73538547  0.19117379    -0.03100
C442        C  0.95238053  0.68777334  0.20183618    -0.07600
C443        C  0.94173637  0.64623285  0.17934434     0.05900
C444        C  0.93937058  0.65592658  0.14465457    -0.02600
Br445      Br  0.92700139  0.60488193  0.11076179    -0.02300
H446        H  0.93820757  0.70898277  0.10766464     0.09800
H447        H  0.95514801  0.68335897  0.22866247     0.07900
Br448      Br  0.96529262  0.78485511  0.22519283    -0.02700
C449        C  0.92634743  0.65444463  0.33660877    -0.09400
C450        C  0.92052862  0.60620801  0.34644489     0.06800
C451        C  0.91568075  0.59394273  0.38115061    -0.03100
C452        C  0.91070490  0.62695018  0.40446328    -0.07600
C453        C  0.91313676  0.67341839  0.39396243     0.05900
C454        C  0.92369303  0.68816060  0.35996964    -0.02600
Br455      Br  0.92945982  0.75185871  0.34352025    -0.02300
H456        H  0.93233556  0.66587814  0.31037621     0.09800
H457        H  0.90238705  0.61512886  0.43055436     0.07900
Br458      Br  0.91778948  0.53444586  0.39854069    -0.02700
C459        C  0.07101378  0.67327702  0.37755942    -0.09400
C460        C  0.06928672  0.67390297  0.34209914     0.06800
C461        C  0.06056918  0.71300800  0.32697699    -0.03100
C462        C  0.05730407  0.75061442  0.34666338    -0.07600
C463        C  0.06442016  0.75304980  0.38148046     0.05900
C464        C  0.06947640  0.71267798  0.39701433    -0.02600
Br465      Br  0.07851132  0.71277785  0.44473962    -0.02300
H466        H  0.07572870  0.64339592  0.39021357     0.09800
H467        H  0.05484026  0.78196258  0.33415295     0.07900
Br468      Br  0.05526433  0.72201435  0.27941654    -0.02700
C469        C  0.94416292  0.28166515  0.16341905    -0.09400
C470        C  0.92965650  0.31619512  0.14853308     0.06800
C471        C  0.92018615  0.31177992  0.11346945    -0.03100
C472        C  0.91998857  0.27047485  0.09536040    -0.07600
C473        C  0.92966633  0.23333410  0.11140552     0.05900
C474        C  0.94470950  0.24137575  0.14542648    -0.02600
Br475      Br  0.95756140  0.19309188  0.17038886    -0.02300
H476        H  0.95347488  0.28444331  0.18995579     0.09800
H477        H  0.90719733  0.26432834  0.06932513     0.07900
Br478      Br  0.90193748  0.35688703  0.08954595    -0.02700
C479        C  0.06746859  0.38865481  0.11951372    -0.09400
C480        C  0.06981960  0.37803093  0.15378727     0.06800
C481        C  0.08005482  0.33759596  0.16251364    -0.03100
C482        C  0.08603408  0.30795647  0.13736393    -0.07600
C483        C  0.08519473  0.31952481  0.10322952     0.05900
C484        C  0.07619429  0.36051072  0.09435824    -0.02600
Br485      Br  0.07896789  0.38126450  0.04842022    -0.02300
H486        H  0.05960631  0.41948347  0.11226702     0.09800
H487        H  0.09634019  0.27872960  0.14452598     0.07900
Br488      Br  0.09453038  0.32606493  0.20779250    -0.02700
C489        C  0.04655693  0.33391128  0.35845875    -0.09400
C490        C  0.03261032  0.33218360  0.32444739     0.06800
C491        C  0.01291306  0.28336751  0.30711118    -0.03100
C492        C  0.01280700  0.24089273  0.32264008    -0.07600
C493        C  0.03085114  0.24406695  0.35548645     0.05900
C494        C  0.04551860  0.29053255  0.37397946    -0.02600
Br495      Br  0.07093493  0.29866173  0.41938075    -0.02300
H496        H  0.06009516  0.36960179  0.37276846     0.09800
H497        H  0.00224447  0.20610394  0.30789715     0.07900
Br498      Br  0.98361208  0.26837464  0.26230815    -0.02700
C499        C  0.92581819  0.28669792  0.39610318    -0.09400
C500        C  0.91455418  0.23650132  0.38689090     0.06800
C501        C  0.90119927  0.22021753  0.35313600    -0.03100
C502        C  0.89669127  0.25286422  0.32970261    -0.07600
C503        C  0.90761546  0.30316038  0.33874783     0.05900
C504        C  0.92348159  0.32043368  0.37231820    -0.02600
Br505      Br  0.94452945  0.38990584  0.38751855    -0.02300
H506        H  0.93443166  0.29891925  0.42215985     0.09800
H507        H  0.88517651  0.23900214  0.30414335     0.07900
Br508      Br  0.88536316  0.15187716  0.33841547    -0.02700
C509        C  0.59991088  0.67626081  0.38280633    -0.09400
C510        C  0.58493717  0.68660387  0.35116607     0.06800
C511        C  0.61423316  0.73772565  0.33834808    -0.03100
C512        C  0.65954489  0.77537553  0.35476125    -0.07600
C513        C  0.67377063  0.76645172  0.38681551     0.05900
C514        C  0.64249764  0.71650459  0.40124852    -0.02600
Br515      Br  0.65598632  0.70290774  0.44623794    -0.02300
H516        H  0.57902921  0.63706508  0.39298881     0.09800
H517        H  0.68090999  0.81404956  0.34388263     0.07900
Br518      Br  0.59156414  0.75888086  0.29897758    -0.02700
C519        C  0.71354048  0.63494610  0.40356950    -0.09400
C520        C  0.75667169  0.68293234  0.39423425     0.06800
C521        C  0.75809165  0.70267916  0.36183381    -0.03100
C522        C  0.71980260  0.67174399  0.33822672    -0.07600
C523        C  0.67925174  0.62109465  0.34636777     0.05900
C524        C  0.67447876  0.60422519  0.38019552    -0.02600
Br525      Br  0.61620386  0.54064189  0.39690689    -0.02300
H526        H  0.71220788  0.61973535  0.42857798     0.09800
H527        H  0.72321764  0.68675564  0.31293917     0.07900
Br528      Br  0.81500609  0.76878996  0.34716353    -0.02700
C529        C  0.73670308  0.70311059  0.20032822    -0.09400
C530        C  0.70448605  0.66053807  0.17876361     0.06800
C531        C  0.71763457  0.66647309  0.14420870    -0.03100
C532        C  0.76318085  0.71200866  0.13284621    -0.07600
C533        C  0.79549544  0.75342031  0.15497415     0.05900
C534        C  0.78019770  0.74898535  0.18870956    -0.02600
Br535      Br  0.82128910  0.80284600  0.22086581    -0.02300
H536        H  0.72835361  0.70118669  0.22697391     0.09800
H537        H  0.77531020  0.71379560  0.10693059     0.07900
Br538      Br  0.67562880  0.61477698  0.11130036    -0.02700
C539        C  0.58884785  0.68098827  0.13255705    -0.09400
C540        C  0.59726995  0.69666145  0.16667327     0.06800
C541        C  0.64711772  0.73905658  0.17597967    -0.03100
C542        C  0.68614379  0.76431950  0.15170019    -0.07600
C543        C  0.67620135  0.75107176  0.11747678     0.05900
C544        C  0.62737851  0.70825752  0.10812495    -0.02600
Br545      Br  0.61019652  0.68969106  0.06170367    -0.02300
H546        H  0.55190229  0.64764170  0.12457936     0.09800
H547        H  0.72250226  0.79907365  0.15898798     0.07900
Br548      Br  0.66400796  0.76866932  0.22042381    -0.02700
C549        C  0.23653236  0.30477469  0.12637069    -0.09400
C550        C  0.24339124  0.32575088  0.09407252     0.06800
C551        C  0.28708511  0.37530450  0.08760994    -0.03100
C552        C  0.32198824  0.40377978  0.11373994    -0.07600
C553        C  0.31278593  0.38443818  0.14688658     0.05900
C554        C  0.26923791  0.33394346  0.15280497    -0.02600
Br555      Br  0.24709186  0.30311901  0.19629576    -0.02300
H556        H  0.20169211  0.26757475  0.13192085     0.09800
H557        H  0.35544428  0.44186896  0.10822868     0.07900
Br558      Br  0.29779656  0.40683641  0.04413136    -0.02700
C559        C  0.34552960  0.28430254  0.16435836    -0.09400
C560        C  0.39274110  0.32414841  0.14999033     0.06800
C561        C  0.39818270  0.32329044  0.11467222    -0.03100
C562        C  0.35910390  0.28138627  0.09552552    -0.07600
C563        C  0.31328613  0.24079004  0.11062757     0.05900
C564        C  0.30596989  0.24438069  0.14513888    -0.02600
Br565      Br  0.24422707  0.19235888  0.16800003    -0.02300
H566        H  0.33867937  0.28357149  0.19114391     0.09800
H567        H  0.36630901  0.27842903  0.06912325     0.07900
Br568      Br  0.45929703  0.37509984  0.09134840    -0.02700
C569        C  0.35560480  0.28605502  0.39410066    -0.09400
C570        C  0.31264306  0.23977509  0.38219915     0.06800
C571        C  0.30380643  0.23198056  0.34733762    -0.03100
C572        C  0.33965363  0.26871983  0.32498480    -0.07600
C573        C  0.38491267  0.31403160  0.33663275     0.05900
C574        C  0.39167300  0.32326521  0.37183206    -0.02600
Br575      Br  0.44882932  0.38462247  0.39212474    -0.02300
H576        H  0.36330694  0.29142976  0.42091238     0.09800
H577        H  0.33249310  0.26087798  0.29829182     0.07900
Br578      Br  0.24678606  0.16840149  0.32912950    -0.02700
C579        C  0.19875762  0.26806207  0.31182463    -0.09400
C580        C  0.19530029  0.25377348  0.34581792     0.06800
C581        C  0.23373858  0.29128502  0.36814948    -0.03100
C582        C  0.27791002  0.33714576  0.35561008    -0.07600
C583        C  0.28033739  0.35068745  0.32151650     0.05900
C584        C  0.23693681  0.31786110  0.30101883    -0.02600
Br585      Br  0.21859866  0.34731826  0.26416726    -0.02300
H586        H  0.16583905  0.24455286  0.29514468     0.09800
H587        H  0.30891868  0.36313746  0.37267642     0.07900
Br588      Br  0.22270075  0.28653776  0.41581113    -0.02700
O589        O  0.46605661  0.39066377  0.81808408    -0.75500
O590        O  0.40038756  0.34795720  0.78026928    -0.54400
C591        C  0.42018228  0.35317880  0.80975711     0.78200
O592        O  0.50634588  0.60446929  0.83205057    -0.60100
O593        O  0.57512450  0.64954697  0.79620986    -0.53100
C594        C  0.55207921  0.64430219  0.82435688     0.70200
O595        O  0.36012298  0.43772964  0.81850198    -0.74700
O596        O  0.33754157  0.38193356  0.77402889    -0.55200
C597        C  0.32883203  0.39391911  0.80333240     0.76200
O598        O  0.61365431  0.53905514  0.81961600    -0.59800
O599        O  0.63503509  0.61459118  0.79223734    -0.52900
C600        C  0.64056758  0.58923414  0.81655159     0.72800
Zr601      Zr  0.53922949  0.46512910  0.79040270     2.54700
O602        O  0.57119498  0.44083656  0.84006455    -0.80400
O603        O  0.58415893  0.42103449  0.76775962    -0.93800
Zr604      Zr  0.43935077  0.52242931  0.80145049     2.64700
O605        O  0.41548125  0.51570289  0.86069547    -0.98800
O606        O  0.38502191  0.56282018  0.79381984    -0.80800
O607        O  0.45768937  0.45766393  0.78840407    -0.84200
O608        O  0.52646080  0.53682365  0.80039591    -2.18900
O609        O  0.62567777  0.56830545  0.67679038    -0.67600
O610        O  0.64021208  0.62661791  0.71848108    -0.52100
C611        C  0.65333315  0.61405042  0.69101812     0.71200
O612        O  0.37687495  0.46621659  0.66867586    -0.60500
O613        O  0.34891982  0.39223572  0.69914647    -0.52500
C614        C  0.34718095  0.41661565  0.67309322     0.73000
O615        O  0.51047810  0.62614986  0.67950044    -0.71900
O616        O  0.56979012  0.66301396  0.72152139    -0.50500
C617        C  0.55557827  0.66170615  0.69094068     0.74400
O618        O  0.46846539  0.40765682  0.66043746    -0.67200
O619        O  0.41877689  0.35556027  0.70243882    -0.54400
C620        C  0.42906701  0.36429226  0.67118947     0.72800
Zr621      Zr  0.54155110  0.48361017  0.69110005     2.77500
O622        O  0.55893087  0.48550057  0.63102621    -0.97900
O623        O  0.59409815  0.44072201  0.69372720    -0.78800
Zr624      Zr  0.44257449  0.54112993  0.70135810     2.70100
O625        O  0.42001856  0.56618451  0.64809822    -0.80000
O626        O  0.38380666  0.57218909  0.72012247    -0.99100
Zr627      Zr  0.41589022  0.41579378  0.74099484     2.21500
Zr628      Zr  0.56473382  0.59063991  0.75253117     2.11100
O629        O  0.53043917  0.55634922  0.69812877    -2.47800
O630        O  0.45935361  0.47364213  0.69943248    -0.79800
O631        O  0.58241868  0.52096540  0.74400953    -0.72000
O632        O  0.39855104  0.48598677  0.74821611    -2.33000
O633        O  0.50191931  0.42545889  0.73774927    -2.29200
O634        O  0.47869366  0.58015181  0.75471381    -0.73800
H635        H  0.54181778  0.55148089  0.82189271     0.78200
H636        H  0.36132262  0.47432064  0.74806824     0.79300
H637        H  0.54964256  0.57735950  0.67916566     0.81500
H638        H  0.50092974  0.39244007  0.73482180     0.79200
H639        H  0.39404572  0.58702512  0.81313684     0.42200
H640        H  0.40771041  0.60929236  0.72616367     0.41200
H641        H  0.43783773  0.55647927  0.63073963     0.40800
H642        H  0.56114459  0.51817071  0.62279441     0.38800
H643        H  0.62947458  0.46865885  0.70105055     0.41900
H644        H  0.56538796  0.38544499  0.77748346     0.36700
H645        H  0.55945988  0.40327215  0.83729805     0.42800
H646        H  0.44859197  0.52607751  0.87323479     0.39200
H647        H  0.59549165  0.49184112  0.62955396     0.44100
H648        H  0.61921481  0.43829054  0.77884441     0.42900
H649        H  0.40814050  0.54459586  0.86461375     0.43000
H650        H  0.36545301  0.57359764  0.69951904     0.43400
O651        O  0.04170355  0.41558517  0.82363759    -0.75500
O652        O  0.02679307  0.37107606  0.77506180    -0.54400
C653        C  0.03363721  0.37456314  0.80666600     0.78200
O654        O  0.90411830  0.52514648  0.82181379    -0.60100
O655        O  0.96557737  0.60152147  0.79800652    -0.53100
C656        C  0.93032626  0.57564632  0.82016096     0.70200
O657        O  0.90019336  0.37554052  0.81912395    -0.74700
O658        O  0.92226255  0.33301804  0.78083001    -0.55200
C659        C  0.90822681  0.33815102  0.81051384     0.76200
O660        O  0.07344894  0.58723319  0.83717345    -0.59800
O661        O  0.08008062  0.63584602  0.79287084    -0.52900
C662        C  0.07705908  0.62940915  0.82445355     0.72800
Zr663      Zr  0.05969741  0.50530148  0.80708058     2.54700
O664        O  0.07225355  0.50193463  0.86746919    -0.80400
O665        O  0.15415887  0.53669708  0.80667154    -0.93800
Zr666      Zr  0.90438217  0.45140144  0.79171760     2.64700
O667        O  0.84325998  0.41667792  0.83887707    -0.98800
O668        O  0.81644587  0.41479447  0.76726479    -0.80800
O669        O  0.97715850  0.44161708  0.79108653    -0.84200
O670        O  0.98865643  0.52243321  0.80489334    -2.18900
O671        O  0.10208711  0.61590687  0.68527605    -0.67600
O672        O  0.06960999  0.65033954  0.72283334    -0.52100
C673        C  0.09010132  0.65067924  0.69434089     0.71200
O674        O  0.93181571  0.40212105  0.65981142    -0.60500
O675        O  0.92431009  0.34496665  0.69984600    -0.52500
C676        C  0.92807247  0.35814334  0.66896406     0.73000
O677        O  0.93074055  0.55971585  0.68013055    -0.71900
O678        O  0.96874856  0.61454580  0.72461210    -0.50500
C679        C  0.94684206  0.60425773  0.69567939     0.74400
O680        O  0.08166675  0.45820919  0.67686983    -0.67200
O681        O  0.03130486  0.38224062  0.70489402    -0.54400
C682        C  0.06284347  0.40891677  0.68118553     0.72800
Zr683      Zr  0.08324569  0.53026667  0.70814036     2.77500
O684        O  0.13767213  0.54979844  0.65789594    -0.97900
O685        O  0.17163681  0.56701173  0.73180280    -0.78800
Zr686      Zr  0.92752774  0.47316058  0.69254920     2.70100
O687        O  0.91512719  0.48206232  0.63280763    -0.80000
O688        O  0.83148939  0.42613233  0.69065994    -0.99100
Zr689      Zr  0.98007590  0.40233200  0.74302344     2.21500
Zr690      Zr  0.00965056  0.57775511  0.75681963     2.11100
O691        O  0.01132630  0.54540610  0.70208875    -2.47800
O692        O  0.99887754  0.46238614  0.70216746    -0.79800
O693        O  0.07452460  0.55686683  0.76044976    -0.72000
O694        O  0.90454063  0.41319897  0.73860686    -2.33000
O695        O  0.06786719  0.47203653  0.75376238    -2.29200
O696        O  0.92196660  0.50890488  0.74558396    -0.73800
H697        H  0.98695174  0.53559491  0.82663391     0.78200
H698        H  0.87241836  0.38034203  0.73458604     0.79300
H699        H  0.01401445  0.56645687  0.68290549     0.81500
H700        H  0.09375699  0.46072800  0.75423314     0.79200
H701        H  0.79830256  0.37737341  0.77354832     0.42200
H702        H  0.82254883  0.44905390  0.67738268     0.41200
H703        H  0.95108607  0.49826330  0.62320346     0.40800
H704        H  0.11418541  0.54635998  0.63889922     0.38800
H705        H  0.17991582  0.53840594  0.73003339     0.41900
H706        H  0.15705488  0.50609511  0.81385526     0.36700
H707        H  0.10042604  0.49279850  0.86973025     0.42800
H708        H  0.86568871  0.43043515  0.85921576     0.39200
H709        H  0.16388843  0.58758970  0.65911437     0.44100
H710        H  0.16835543  0.56124425  0.82592216     0.42900
H711        H  0.82269349  0.43502658  0.83820395     0.43000
H712        H  0.82225536  0.39593572  0.67568285     0.43400
O713        O  0.37700306  0.90739643  0.81810089    -0.75500
O714        O  0.34108239  0.93722056  0.77965239    -0.54400
C715        C  0.34049457  0.91663262  0.80795126     0.78200
O716        O  0.61458690  0.06933637  0.83416007    -0.60100
O717        O  0.64770050  0.03165148  0.79948953    -0.53100
C718        C  0.64846352  0.05454244  0.82717838     0.70200
O719        O  0.45528575  0.06073336  0.83572245    -0.74700
O720        O  0.39163855  0.03770404  0.79604015    -0.55200
C721        C  0.40987997  0.05308386  0.82577595     0.76200
O722        O  0.52338276  0.89625288  0.81702927    -0.59800
O723        O  0.59283059  0.93106811  0.78125553    -0.52900
C724        C  0.57106417  0.90884204  0.80890850     0.72800
Zr725      Zr  0.45338477  0.90885271  0.79111930     2.54700
O726        O  0.42352655  0.85370785  0.84099371    -0.80400
O727        O  0.40595839  0.82177878  0.76649408    -0.93800
Zr728      Zr  0.53284416  0.06325355  0.80991606     2.64700
O729        O  0.53703569  0.07283870  0.87101194    -0.98800
O730        O  0.57462196  0.15808713  0.81037285    -0.80800
O731        O  0.45783104  0.98805013  0.79494086    -0.84200
O732        O  0.53509964  0.98543849  0.80245200    -2.18900
O733        O  0.54154435  0.92672593  0.66948704    -0.67600
O734        O  0.61099220  0.96229918  0.70592694    -0.52100
C735        C  0.58945247  0.94015856  0.67772628     0.71200
O736        O  0.47498282  0.08702326  0.67986572    -0.60500
O737        O  0.41313092  0.06765190  0.71931283    -0.52500
C738        C  0.42977343  0.07991787  0.68918939     0.73000
O739        O  0.63240007  0.10214422  0.68957727    -0.71900
O740        O  0.66344937  0.06579524  0.72694912    -0.50500
C741        C  0.66642563  0.08906644  0.69928740     0.74400
O742        O  0.39050570  0.93301063  0.66760632    -0.67200
O743        O  0.35422909  0.96504378  0.70410437    -0.54400
C744        C  0.35498696  0.94468872  0.67558509     0.72800
Zr745      Zr  0.46937759  0.93754005  0.69289256     2.77500
O746        O  0.47394914  0.95699320  0.63314003    -0.97900
O747        O  0.42045647  0.84349625  0.68353647    -0.78800
Zr748      Zr  0.54871024  0.09101381  0.71215268     2.70100
O749        O  0.57963779  0.14928864  0.66377020    -0.80000
O750        O  0.58243776  0.17733088  0.73691370    -0.99100
Zr751      Zr  0.41697603  0.00077565  0.75055229     2.21500
Zr752      Zr  0.58574663  0.99836710  0.75272459     2.11100
O753        O  0.55161719  0.01337300  0.70203205    -2.47800
O754        O  0.47235118  0.01294219  0.70806565    -0.79800
O755        O  0.50459747  0.91933558  0.74210582    -0.72000
O756        O  0.49706023  0.08102140  0.76098608    -2.33000
O757        O  0.41447993  0.91977726  0.74107390    -2.29200
O758        O  0.58750216  0.07935368  0.76189520    -0.73800
H759        H  0.55014092  0.98162388  0.82303331     0.78200
H760        H  0.49076718  0.10989758  0.76436347     0.79300
H761        H  0.57158518  0.01699409  0.68205014     0.81500
H762        H  0.37907536  0.89133364  0.73732616     0.79200
H763        H  0.54930254  0.16516121  0.82252823     0.42200
H764        H  0.61902228  0.19786096  0.72842380     0.41200
H765        H  0.57345008  0.12607954  0.64423413     0.40800
H766        H  0.51192015  0.98016474  0.62833003     0.38800
H767        H  0.38385198  0.83258411  0.69037315     0.41900
H768        H  0.37087159  0.80517829  0.77739036     0.36700
H769        H  0.44153488  0.87785313  0.86003236     0.42800
H770        H  0.54240501  0.04440038  0.87969688     0.39200
H771        H  0.46447038  0.92351243  0.62194866     0.44100
H772        H  0.42347791  0.80336537  0.77609732     0.42900
H773        H  0.57070396  0.10541057  0.87569492     0.43000
H774        H  0.56291234  0.19209405  0.72517346     0.43400
C775        C  0.06246399  0.12847138  0.86457522     0.02900
C776        C  0.11824810  0.16080442  0.85858867    -0.13200
C777        C  0.14221150  0.21629330  0.85654397     0.00400
C778        C  0.11106330  0.23880011  0.86019959    -0.11800
C779        C  0.05665462  0.20925018  0.86112366     0.02900
C780        C  0.03181014  0.15385944  0.86233116    -0.11200
H781        H  0.14329618  0.14351739  0.85911449     0.08500
H782        H  0.12964296  0.28106357  0.85796778     0.06000
H783        H  0.98941930  0.13141013  0.86568156     0.05900
C784        C  0.11693304  0.22326137  0.56200784     0.02900
C785        C  0.17228264  0.25275454  0.56027098    -0.13200
C786        C  0.19879102  0.30543593  0.57035089     0.00400
C787        C  0.16965384  0.33022253  0.57675493    -0.11800
C788        C  0.11573686  0.30028733  0.58285170     0.02900
C789        C  0.08921258  0.24670170  0.57524815    -0.11200
H790        H  0.19473468  0.23381541  0.55410659     0.08500
H791        H  0.19022731  0.37045938  0.58555994     0.06000
H792        H  0.04795215  0.22345387  0.58066481     0.05900
C793        C  0.08978070  0.86360687  0.56663046     0.02900
C794        C  0.06332394  0.81490585  0.58356357    -0.13200
C795        C  0.09315897  0.79880869  0.60314973     0.00400
C796        C  0.14770019  0.82962122  0.60499940    -0.11800
C797        C  0.17346732  0.87958061  0.59225357     0.02900
C798        C  0.14508260  0.89668996  0.57271841    -0.11200
H799        H  0.02081935  0.79064190  0.58199117     0.08500
H800        H  0.16994054  0.81674695  0.62033931     0.06000
H801        H  0.16602828  0.93635369  0.56329268     0.05900
C802        C  0.89665466  0.09761114  0.58834249     0.02900
C803        C  0.92567952  0.15296961  0.58664627    -0.13200
C804        C  0.90194802  0.18293201  0.59556863     0.00400
C805        C  0.84883210  0.15681671  0.60409951    -0.11800
C806        C  0.82107913  0.10285087  0.60825499     0.02900
C807        C  0.84444380  0.07290578  0.60007107    -0.11200
H808        H  0.96581138  0.17212495  0.57824420     0.08500
H809        H  0.83090343  0.17935257  0.61262651     0.06000
H810        H  0.82244435  0.03087642  0.60328501     0.05900
C811        C  0.90481212  0.12525846  0.93890946     0.02900
C812        C  0.84881438  0.09341161  0.93464399    -0.13200
C813        C  0.81826247  0.11398331  0.92145663     0.00400
C814        C  0.84329755  0.16676554  0.91401273    -0.11800
C815        C  0.89801589  0.19522515  0.91085517     0.02900
C816        C  0.92952710  0.17550864  0.92431334    -0.11200
H817        H  0.82889838  0.05214074  0.94052762     0.08500
H818        H  0.82009031  0.18241686  0.90285582     0.06000
H819        H  0.97193029  0.19757736  0.92224459     0.05900
C820        C  0.22687703  0.12793418  0.93785911     0.02900
C821        C  0.25193184  0.09784088  0.93142493    -0.13200
C822        C  0.30057628  0.11964568  0.91468673     0.00400
C823        C  0.32504358  0.17166197  0.90527813    -0.11800
C824        C  0.29811487  0.19938284  0.90703899     0.02900
C825        C  0.24937351  0.17817561  0.92384642    -0.11200
H826        H  0.23277335  0.05679873  0.93795100     0.08500
H827        H  0.36158299  0.18790344  0.89108275     0.06000
H828        H  0.22811181  0.19913775  0.92481813     0.05900
C829        C  0.09514529  0.88759288  0.90959918     0.02900
C830        C  0.14979257  0.91339487  0.90352193    -0.13200
C831        C  0.17504759  0.88474207  0.89690412     0.00400
C832        C  0.14711040  0.83049158  0.89929088    -0.11800
C833        C  0.09211653  0.80341143  0.89980797     0.02900
C834        C  0.06554895  0.83230509  0.90494635    -0.11200
H835        H  0.17237760  0.95574544  0.90301278     0.08500
H836        H  0.16747682  0.80923667  0.89315952     0.06000
H837        H  0.02303739  0.81237448  0.90537275     0.05900
C838        C  0.20560723  0.09874349  0.58523264     0.02900
C839        C  0.23476022  0.07395198  0.59310039    -0.13200
C840        C  0.28823045  0.10384668  0.60186176     0.00400
C841        C  0.31358126  0.15804047  0.60018493    -0.11800
C842        C  0.28494871  0.18365136  0.59567279     0.02900
C843        C  0.23039904  0.15388980  0.58801300    -0.11200
H844        H  0.21554786  0.03168534  0.59347160     0.08500
H845        H  0.35453196  0.18047929  0.60828898     0.06000
H846        H  0.20752829  0.17318260  0.58473076     0.05900
O847        O  0.06739591  0.13065739  0.57084745    -0.86700
O848        O  0.01617309  0.03705493  0.89046359    -0.86900
O849        O  0.14439329  0.12338474  0.95688028    -0.88500
O850        O  0.98536817  0.12171205  0.95521183    -0.87300
O851        O  0.90305271  0.06055902  0.97289952    -0.86900
O852        O  0.16421957  0.05978981  0.97007239    -0.88300
O853        O  0.06494797  0.11474996  0.91930641    -0.86700
O854        O  0.08788655  0.16440586  0.51708651    -0.86300
Zr855      Zr  0.05013337  0.09300365  0.97525151     2.84300
O856        O  0.96871611  0.02562644  0.95510787    -1.08300
O857        O  0.07721320  0.06095088  0.52084938    -1.09000
C858        C  0.08878202  0.16897889  0.54941120     1.06400
C859        C  0.04654350  0.08890092  0.89236019     1.06300
C860        C  0.17542431  0.10320034  0.95634910     1.09300
C861        C  0.93404691  0.10210497  0.95674633     1.07100
H862        H  0.08299226  0.03422302  0.93452197     0.32700
O863        O  0.05897647  0.02375575  0.95324085    -1.29300
H864        H  0.98640516  0.09375456  0.52683021     0.32300
O865        O  0.98995703  0.06399940  0.52102242    -1.30900
O866        O  0.92900131  0.86110373  0.93007919    -0.86700
O867        O  0.98016624  0.95662835  0.61049658    -0.88200
O868        O  0.09676278  0.94151653  0.95332336    -0.86800
O869        O  0.84679314  0.94877559  0.95644549    -0.86800
O870        O  0.89372853  0.04215198  0.54561593    -0.86500
O871        O  0.15075430  0.04291744  0.54301813    -0.86400
O872        O  0.01128013  0.86545238  0.54594037    -0.86700
O873        O  0.85898780  0.86839392  0.54796702    -0.86200
O874        O  0.09393531  0.92522651  0.52810479    -0.87200
O875        O  0.83876170  0.93117625  0.53347652    -0.86400
O876        O  0.03399406  0.92117001  0.91219111    -0.86800
O877        O  0.11199534  0.06740091  0.58408578    -0.86500
O878        O  0.95800855  0.06538879  0.58613530    -0.86200
O879        O  0.88453622  0.92577062  0.91405346    -0.86600
O880        O  0.91623971  0.82548021  0.98337459    -0.86900
O881        O  0.94390491  0.87793390  0.58205936    -0.88200
Zr882      Zr  0.97789524  0.95735518  0.93242949     2.83100
Zr883      Zr  0.01860593  0.03371600  0.56724528     2.83500
Zr884      Zr  0.08688292  0.99263570  0.49944589     2.84100
Zr885      Zr  0.91000591  0.99519891  0.50160027     2.83400
Zr886      Zr  0.95022878  0.89705726  0.52536128     2.84200
O887        O  0.93902182  0.96517905  0.54627203    -1.08800
O888        O  0.00942734  0.92749310  0.97765413    -1.08300
C889        C  0.91164467  0.82227899  0.95100551     1.06400
C890        C  0.95594598  0.90473754  0.60893493     1.09000
C891        C  0.07328368  0.91855966  0.92566092     1.06500
C892        C  0.84450888  0.92609298  0.92820983     1.06900
C893        C  0.91722946  0.06562813  0.57302847     1.06500
C894        C  0.15225274  0.06733879  0.57028638     1.06000
C895        C  0.06231137  0.88463176  0.54508073     1.06500
C896        C  0.82886811  0.88940274  0.54902815     1.06000
H897        H  0.04462549  0.95638683  0.56419169     0.32700
O898        O  0.03022522  0.96621174  0.54563949    -1.29900
H899        H  0.88719575  0.89679517  0.97436119     0.32700
O900        O  0.92119320  0.92611977  0.98002190    -1.31300
C901        C  0.77948574  0.86739941  0.56952061     0.02900
C902        C  0.75182733  0.81518629  0.58086934    -0.13200
C903        C  0.70178336  0.79622328  0.59577167     0.00400
C904        C  0.67942396  0.82809890  0.59824749    -0.11800
C905        C  0.70967974  0.88128558  0.59322523     0.02900
C906        C  0.75943178  0.90118155  0.57829116    -0.11200
H907        H  0.76886033  0.79015156  0.57849689     0.08500
H908        H  0.64123554  0.81297534  0.61036956     0.06000
H909        H  0.78243214  0.94285276  0.57380971     0.05900
C910        C  0.79036881  0.89791411  0.91307315     0.02900
C911        C  0.76210148  0.84305413  0.90660708    -0.13200
C912        C  0.70594393  0.81630607  0.90432340     0.00400
C913        C  0.68009991  0.84425865  0.91096282    -0.11800
C914        C  0.70750364  0.89825198  0.90693293     0.02900
C915        C  0.76262218  0.92540207  0.91029695    -0.11200
H916        H  0.78307436  0.82188687  0.90347399     0.08500
H917        H  0.63736904  0.82391094  0.90831491     0.06000
H918        H  0.78397627  0.96771342  0.90952204     0.05900
C919        C  0.93581964  0.86667999  0.63755793     0.02900
C920        C  0.87980922  0.83989386  0.64205426    -0.13200
C921        C  0.85115037  0.78507825  0.64731694     0.00400
C922        C  0.87772568  0.75761097  0.64984294    -0.11800
C923        C  0.93198891  0.78198397  0.64896754     0.02900
C924        C  0.96174732  0.83683715  0.64313722    -0.11200
H925        H  0.85810828  0.86020223  0.63751025     0.08500
H926        H  0.85531703  0.71580803  0.65478637     0.06000
H927        H  0.00396549  0.85493054  0.63943228     0.05900
C928        C  0.88272798  0.76953806  0.93671847     0.02900
C929        C  0.90928534  0.74220233  0.92881200    -0.13200
C930        C  0.88243272  0.69422089  0.91178756     0.00400
C931        C  0.82885111  0.67247372  0.90481537    -0.11800
C932        C  0.80279595  0.70022353  0.91118974     0.02900
C933        C  0.82939222  0.74853197  0.92772144    -0.11200
H934        H  0.95087093  0.75925306  0.93427218     0.08500
H935        H  0.80903107  0.63672216  0.89006824     0.06000
H936        H  0.80962546  0.77069170  0.93205127     0.05900
C937        C  0.67305149  0.94014499  0.66416146    -0.09400
C938        C  0.62353475  0.93184633  0.65309481     0.06800
C939        C  0.60954560  0.91722323  0.61887105    -0.03100
C940        C  0.64318533  0.90909831  0.59778964    -0.07600
C941        C  0.69020373  0.91330820  0.60988395     0.05900
C942        C  0.70547458  0.93006740  0.64329640    -0.02600
Br943      Br  0.76607402  0.93172541  0.66336213    -0.02300
H944        H  0.68568630  0.95173081  0.68991606     0.09800
H945        H  0.63006908  0.89437199  0.57252998     0.07900
Br946      Br  0.54415279  0.90317508  0.59868819    -0.02700
C947        C  0.78569492  0.08787093  0.66448288    -0.09400
C948        C  0.77491040  0.08335392  0.62996149     0.06800
C949        C  0.72875448  0.08163334  0.61817656    -0.03100
C950        C  0.69460070  0.08562428  0.64097607    -0.07600
C951        C  0.70699470  0.09335454  0.67551715     0.05900
C952        C  0.75342818  0.09478570  0.68704411    -0.02600
Br953      Br  0.77918528  0.11325306  0.73227421    -0.02300
H954        H  0.82279204  0.09230036  0.67345480     0.09800
H955        H  0.65839437  0.08275659  0.63163792     0.07900
Br956      Br  0.71368723  0.07794824  0.57093692    -0.02700
C957        C  0.68508787  0.07910108  0.88608990    -0.09400
C958        C  0.68897068  0.06203323  0.85357906     0.06800
C959        C  0.73073056  0.05134927  0.84790422    -0.03100
C960        C  0.76695651  0.05903956  0.87361620    -0.07600
C961        C  0.76624303  0.08165242  0.90444709     0.05900
C962        C  0.72358532  0.08991253  0.91093548    -0.02600
Br963      Br  0.71930005  0.12061174  0.95245905    -0.02300
H964        H  0.65328670  0.08654218  0.89193453     0.09800
H965        H  0.79994102  0.05329001  0.86795241     0.07900
Br966      Br  0.74696961  0.03347101  0.80493412    -0.02700
C967        C  0.59781807  0.91127204  0.86874163    -0.09400
C968        C  0.60616234  0.90537577  0.83446501     0.06800
C969        C  0.65369314  0.90715261  0.82515112    -0.03100
C970        C  0.69093701  0.91444188  0.84964980    -0.07600
C971        C  0.68110266  0.91698836  0.88388009     0.05900
C972        C  0.63466788  0.91661941  0.89334189    -0.02600
Br973      Br  0.62004324  0.92174607  0.93972179    -0.02300
H974        H  0.56289861  0.91239820  0.87646347     0.09800
H975        H  0.72577535  0.91293108  0.84213992     0.07900
Br976      Br  0.66978467  0.89690818  0.77976991    -0.02700
C977        C  0.34622184  0.07880839  0.67760105    -0.09400
C978        C  0.39265277  0.08238769  0.66466889     0.06800
C979        C  0.39898757  0.08364734  0.62927927    -0.03100
C980        C  0.36071806  0.08427133  0.60824009    -0.07600
C981        C  0.31567921  0.08272688  0.62168733     0.05900
C982        C  0.30818001  0.07873033  0.65668859    -0.04300
Br983      Br  0.24988566  0.07935961  0.67816506    -0.02300
H984        H  0.33936246  0.07696196  0.70445760     0.09800
H985        H  0.36759531  0.08909719  0.58137323     0.07900
Br986      Br  0.45857975  0.08580660  0.60754856    -0.02700
C987        C  0.27442318  0.94927646  0.65866692    -0.09400
C988        C  0.31262307  0.93522942  0.65028167     0.06800
C989        C  0.30871625  0.91274753  0.61794849    -0.03100
C990        C  0.26670411  0.90281572  0.59633682    -0.07600
C991        C  0.22711781  0.91359250  0.60597650     0.05900
C992        C  0.23231142  0.93868621  0.63696116    -0.02600
Br993      Br  0.17782449  0.95152208  0.65260114    -0.02300
H994        H  0.27566017  0.96653335  0.68292571     0.09800
H995        H  0.26193456  0.88154902  0.57314273     0.07900
Br996      Br  0.35484642  0.88895692  0.60172433    -0.02700
C997        C  0.30914865  0.91877178  0.86552178    -0.09400
C998        C  0.29775001  0.90833744  0.83102982     0.06800
C999        C  0.24792170  0.89756038  0.81873311    -0.03100
C1000       C  0.21120018  0.89780032  0.84073498    -0.07600
C1001       C  0.22168718  0.90578514  0.87530658     0.05900
C1002       C  0.27118668  0.91686951  0.88773018    -0.02600
Br1003     Br  0.28749560  0.92790544  0.93475820    -0.02300
H1004       H  0.34771055  0.92866126  0.87522330     0.09800
H1005       H  0.17215614  0.88680367  0.83128109     0.07900
Br1006     Br  0.22491621  0.87667389  0.77307287    -0.02700
C1007       C  0.39498746  0.07734774  0.88359906    -0.09400
C1008       C  0.37649489  0.06229954  0.85033618     0.06800
C1009       C  0.32690958  0.05732002  0.84164444    -0.03100
C1010       C  0.29903199  0.06901216  0.86538774    -0.07600
C1011       C  0.31974010  0.08779945  0.89748799     0.05900
C1012       C  0.36766965  0.09091433  0.90674018    -0.02600
Br1013     Br  0.39914786  0.11739658  0.94989748    -0.02300
H1014       H  0.43218019  0.08095276  0.89140761     0.09800
H1015       H  0.26302299  0.06815704  0.85764425     0.07900
Br1016     Br  0.29565094  0.03996332  0.79742652    -0.02700
C1017       C  0.08960200  0.73223533  0.68166146    -0.09400
C1018       C  0.09015793  0.68799396  0.66929928     0.06800
C1019       C  0.07839482  0.67521314  0.63470476    -0.03100
C1020       C  0.06996907  0.70823330  0.61343336    -0.07600
C1021       C  0.07210905  0.75362546  0.62580224     0.05900
C1022       C  0.07977050  0.76405822  0.66062661    -0.02600
Br1023     Br  0.08536589  0.82605582  0.68003745    -0.02300
H1024       H  0.09694355  0.74239207  0.70806486     0.09800
H1025       H  0.06565669  0.70052651  0.58661370     0.07900
Br1026     Br  0.07206665  0.61349712  0.61423269    -0.02700
C1027       C  0.94419012  0.70600147  0.63522850    -0.09400
C1028       C  0.95223641  0.74621636  0.65800101     0.06800
C1029       C  0.95588135  0.73751154  0.69237620    -0.03100
C1030       C  0.95211565  0.69083260  0.70332680    -0.07600
C1031       C  0.94400311  0.65004782  0.68091603     0.05900
C1032       C  0.94008659  0.65849363  0.64625661    -0.02600
Br1033     Br  0.92701335  0.60649702  0.61291903    -0.02300
H1034       H  0.93745083  0.71018298  0.60889231     0.09800
H1035       H  0.95452866  0.68635266  0.73020294     0.07900
Br1036     Br  0.95904700  0.78581896  0.72604159    -0.02700
C1037       C  0.93029070  0.65648251  0.83630736    -0.09400
C1038       C  0.92259718  0.60742702  0.84595172     0.06800
C1039       C  0.91304289  0.59309692  0.88027610    -0.03100
C1040       C  0.90560094  0.62504521  0.90311857    -0.07600
C1041       C  0.90982359  0.67228621  0.89264562     0.05900
C1042       C  0.92448190  0.68886610  0.85925645    -0.02600
Br1043     Br  0.93149788  0.75304795  0.84271722    -0.02300
H1044       H  0.93961873  0.66934155  0.81044054     0.09800
H1045       H  0.89410973  0.61188642  0.92874911     0.07900
Br1046     Br  0.91179443  0.53209069  0.89794982    -0.02700
C1047       C  0.07246651  0.66902676  0.88082670    -0.09400
C1048       C  0.07343365  0.67067473  0.84532037     0.06800
C1049       C  0.06746261  0.71126095  0.82986221    -0.03100
C1050       C  0.06395270  0.74899015  0.84926702    -0.07600
C1051       C  0.06808278  0.75016262  0.88426354     0.05900
C1052       C  0.07070780  0.70858334  0.90009023    -0.02600
Br1053     Br  0.07478433  0.70644935  0.94809510    -0.02300
H1054       H  0.07499678  0.63806122  0.89372291     0.09800
H1055       H  0.06338613  0.78120494  0.83656479     0.07900
Br1056     Br  0.06615760  0.72210361  0.78221565    -0.02700
C1057       C  0.95162110  0.28915973  0.65759525    -0.09400
C1058       C  0.93248652  0.32121541  0.64466006     0.06800
C1059       C  0.91790021  0.31505878  0.61031225    -0.03100
C1060       C  0.91662406  0.27376924  0.59146145    -0.07600
C1061       C  0.93111504  0.23894892  0.60589504     0.05900
C1062       C  0.95268851  0.25001998  0.63847613    -0.02600
Br1063     Br  0.97524391  0.20649685  0.66048263    -0.02300
H1064       H  0.96434492  0.29293966  0.68351403     0.09800
H1065       H  0.89913887  0.26553798  0.56655403     0.07900
Br1066     Br  0.89342471  0.35716929  0.58892399    -0.02700
C1067       C  0.07108908  0.38836337  0.62178485    -0.09400
C1068       C  0.07597581  0.38038585  0.65615021     0.06800
C1069       C  0.09046509  0.34334168  0.66575037    -0.03100
C1070       C  0.09890730  0.31455130  0.64117649    -0.07600
C1071       C  0.09388353  0.32239538  0.60687340     0.05900
C1072       C  0.08056705  0.36013417  0.59718332    -0.02600
Br1073     Br  0.07728720  0.37582652  0.55078823    -0.02300
H1074       H  0.05982787  0.41663630  0.61405867     0.09800
H1075       H  0.11220026  0.28774821  0.64879029     0.07900
Br1076     Br  0.10444805  0.33417284  0.71162736    -0.02700
C1077       C  0.04364995  0.32878816  0.85730674    -0.09400
C1078       C  0.02996926  0.32723325  0.82327529     0.06800
C1079       C  0.01167010  0.27898126  0.80550362    -0.03100
C1080       C  0.01285137  0.23697313  0.82074440    -0.07600
C1081       C  0.03040845  0.24006036  0.85374026     0.05900
C1082       C  0.04348461  0.28579214  0.87259549    -0.02600
Br1083     Br  0.06806090  0.29378900  0.91822571    -0.02300
H1084       H  0.05605828  0.36403720  0.87189847     0.09800
H1085       H  0.00357397  0.20273712  0.80574669     0.07900
Br1086     Br  0.98296677  0.26439219  0.76046839    -0.02700
C1087       C  0.92764810  0.28628358  0.89393699    -0.09400
C1088       C  0.91564527  0.23581233  0.88478076     0.06800
C1089       C  0.90101753  0.21929804  0.85116164    -0.03100
C1090       C  0.89544118  0.25171232  0.82797059    -0.07600
C1091       C  0.90689584  0.30221152  0.83702939     0.05900
C1092       C  0.92482468  0.31997839  0.87028239    -0.02600
Br1093     Br  0.94947706  0.39052208  0.88489104    -0.02300
H1094       H  0.93776568  0.29897279  0.91981987     0.09800
H1095       H  0.88296006  0.23761584  0.80254876     0.07900
Br1096     Br  0.88542633  0.15108028  0.83636623    -0.02700
C1097       C  0.59982302  0.67747734  0.88016122    -0.09400
C1098       C  0.58474668  0.68733363  0.84845246     0.06800
C1099       C  0.61344470  0.73840806  0.83553231    -0.03100
C1100       C  0.65858081  0.77657100  0.85192153    -0.07600
C1101       C  0.67319301  0.76797914  0.88398363     0.05900
C1102       C  0.64215058  0.71806460  0.89853101    -0.02600
Br1103     Br  0.65508722  0.70499801  0.94375493    -0.02300
H1104       H  0.57911876  0.63838138  0.89050077     0.09800
H1105       H  0.67950114  0.81522000  0.84098846     0.07900
Br1106     Br  0.58952885  0.75865098  0.79633945    -0.02700
C1107       C  0.70951881  0.63520362  0.90142193    -0.09400
C1108       C  0.75354986  0.68283535  0.89238852     0.06800
C1109       C  0.75651729  0.70231200  0.85970594    -0.03100
C1110       C  0.71940555  0.67122540  0.83553645    -0.07600
C1111       C  0.67804830  0.62094936  0.84350734     0.05900
C1112       C  0.67116566  0.60469914  0.87753666    -0.02600
Br1113     Br  0.61020517  0.54273054  0.89366595    -0.02300
H1114       H  0.70671975  0.62022530  0.92666927     0.09800
H1115       H  0.72416299  0.68588263  0.81005444     0.07900
Br1116     Br  0.81421305  0.76834853  0.84565355    -0.02700
C1117       C  0.73490094  0.70034934  0.69872862    -0.09400
C1118       C  0.70320359  0.65849127  0.67656189     0.06800
C1119       C  0.71748323  0.66505591  0.64222753    -0.03100
C1120       C  0.76272972  0.71132348  0.63147235    -0.07600
C1121       C  0.79392677  0.75245844  0.65409265     0.05900
C1122       C  0.77824939  0.74671472  0.68779200    -0.02600
Br1123     Br  0.81863718  0.79919066  0.72090945    -0.02300
H1124       H  0.72614210  0.69753594  0.72535015     0.09800
H1125       H  0.77570826  0.71386874  0.60569429     0.07900
Br1126     Br  0.67810970  0.61282207  0.60898884    -0.02700
C1127       C  0.58971249  0.67979103  0.63220140    -0.09400
C1128       C  0.59658567  0.69566246  0.66627431     0.06800
C1129       C  0.64616185  0.73781650  0.67632507    -0.03100
C1130       C  0.68567687  0.76394512  0.65252626    -0.07600
C1131       C  0.67673782  0.75108627  0.61825268     0.05900
C1132       C  0.62912934  0.70729462  0.60835995    -0.02600
Br1133     Br  0.61509124  0.68743209  0.56191027    -0.02300
H1134       H  0.55335215  0.64610510  0.62380451     0.09800
H1135       H  0.72150869  0.79899091  0.66019955     0.07900
Br1136     Br  0.66260164  0.76569215  0.72118962    -0.02700
C1137       C  0.23821966  0.30436108  0.62343262    -0.09400
C1138       C  0.24665022  0.32576256  0.59111698     0.06800
C1139       C  0.29009204  0.37575095  0.58549725    -0.03100
C1140       C  0.32255403  0.40452955  0.61242009    -0.07600
C1141       C  0.31134867  0.38488839  0.64545139     0.05900
C1142       C  0.26845727  0.33380649  0.65060362    -0.02600
Br1143     Br  0.24400814  0.30246671  0.69377251    -0.02300
H1144       H  0.20355698  0.26671256  0.62833026     0.09800
H1145       H  0.35584181  0.44299603  0.60752092     0.07900
Br1146     Br  0.30338258  0.40762483  0.54203751    -0.02700
C1147       C  0.34282866  0.28294336  0.66276762    -0.09400
C1148       C  0.39004234  0.32226017  0.64809726     0.06800
C1149       C  0.39584424  0.31985691  0.61291598    -0.03100
C1150       C  0.35691183  0.27717497  0.59424279    -0.07600
C1151       C  0.31104208  0.23732579  0.60970947     0.05900
C1152       C  0.30355783  0.24213911  0.64403111    -0.02600
Br1153     Br  0.24235806  0.19034527  0.66752184    -0.02300
H1154       H  0.33580871  0.28321274  0.68946161     0.09800
H1155       H  0.36424795  0.27305709  0.56803632     0.07900
Br1156     Br  0.45733290  0.37036861  0.58929698    -0.02700
C1157       C  0.36049203  0.29128017  0.89434188    -0.09400
C1158       C  0.31764257  0.24374351  0.88395525     0.06800
C1159       C  0.30752016  0.23324769  0.84933687    -0.03100
C1160       C  0.34143477  0.26909988  0.82576344    -0.07600
C1161       C  0.38636020  0.31580425  0.83595066     0.05900
C1162       C  0.39481843  0.32737621  0.87086096    -0.02600
Br1163     Br  0.45205917  0.39081641  0.88912454    -0.02300
H1164       H  0.36937863  0.29873851  0.92093331     0.09800
H1165       H  0.33330376  0.25945924  0.79931393     0.07900
Br1166     Br  0.25165919  0.16728022  0.83314850    -0.02700
C1167       C  0.19861837  0.26903828  0.81059768    -0.09400
C1168       C  0.19648097  0.25443994  0.84447996     0.06800
C1169       C  0.23531346  0.29217697  0.86653482    -0.03100
C1170       C  0.27894894  0.33805339  0.85370252    -0.07600
C1171       C  0.28027757  0.35160131  0.81975564     0.05900
C1172       C  0.23642628  0.31886977  0.79960920    -0.02600
Br1173     Br  0.21824287  0.34808992  0.76254155    -0.02300
H1174       H  0.16527905  0.24547338  0.79422433     0.09800
H1175       H  0.31037769  0.36416005  0.87049085     0.07900
Br1176     Br  0.22536413  0.28861751  0.91423615    -0.02700
loop_ 
_geom_bond_atom_site_label_1 
_geom_bond_atom_site_label_2 
_geom_bond_distance 
_geom_bond_site_symmetry_2 
_ccdc_geom_bond_type 
O1          Zr13   2.445       .  S
O1            C3   1.285       .  A
O2          Zr39   2.392       .  S
O2            C3   1.279       .  A
C3          C573   1.483       .  S
O4          Zr16   2.538       .  S
O4            C6   1.303       .  A
O5          Zr40   2.367       .  S
O5            C6   1.277       .  A
C6          C510   1.493       .  S
O7          Zr16   2.519       .  S
O7            C9   1.301       .  A
O8          Zr39   2.395       .  S
O8            C9   1.281       .  A
C9          C583   1.501       .  S
O10         Zr13   2.464       .  S
O10          C12   1.290       .  A
O11         Zr40   2.399       .  S
O11          C12   1.282       .  A
C12         C523   1.482       .  S
Zr13         O14   2.439       .  S
Zr13         O15   2.437       .  S
Zr13         O19   2.282       .  S
Zr13         O20   2.358       .  S
Zr13         O43   2.382       .  S
Zr13         O45   2.376       .  S
O14          H57   0.990       .  S
O15          H56   0.990       .  S
O15          H60   0.990       .  S
Zr16         O17   2.437       .  S
Zr16         O18   2.434       .  S
Zr16         O19   2.288       .  S
Zr16         O20   2.366       .  S
Zr16         O44   2.402       .  S
Zr16         O46   2.399       .  S
O17          H58   0.990       .  S
O17          H61   0.991       .  S
O18          H51   0.990       .  S
O19         Zr39   2.249       .  S
O20         Zr40   2.379       .  S
O20          H47   0.960       .  S
O21         Zr33   2.554       .  S
O21          C23   1.307       .  A
O22         Zr40   2.355       .  S
O22          C23   1.274       .  A
C23         C530   1.511       .  S
O24         Zr36   2.456       .  S
O24          C26   1.289       .  A
O25         Zr39   2.392       .  S
O25          C26   1.278       .  A
C26         C553   1.486       .  S
O27         Zr36   2.462       .  S
O27          C29   1.290       .  A
O28         Zr40   2.411       .  S
O28          C29   1.280       .  A
C29         C540   1.489       .  S
O30         Zr33   2.505       .  S
O30          C32   1.296       .  A
O31         Zr39   2.382       .  S
O31          C32   1.274       .  A
C32         C560   1.505       .  S
Zr33         O34   2.437       .  S
Zr33         O35   2.433       .  S
Zr33         O42   2.295       .  S
Zr33         O41   2.342       .  S
Zr33         O45   2.402       .  S
Zr33         O43   2.393       .  S
O34          H54   0.990       .  S
O34          H59   0.990       .  S
O35          H55   0.990       .  S
Zr36         O37   2.438       .  S
Zr36         O38   2.433       .  S
Zr36         O42   2.277       .  S
Zr36         O41   2.378       .  S
Zr36         O46   2.392       .  S
Zr36         O44   2.390       .  S
O37          H53   0.990       .  S
O38          H52   0.990       .  S
O38          H62   0.990       .  S
Zr39         O42   2.258       .  S
Zr39         O44   2.385       .  S
Zr39         O45   2.391       .  S
Zr40         O41   2.383       .  S
Zr40         O43   2.383       .  S
Zr40         O46   2.383       .  S
O41          H49   0.959       .  S
O44          H48   0.963       .  S
O45          H50   0.968       .  S
O63         Zr75   2.526       .  S
O63          C65   1.302       .  A
O64        Zr101   2.369   1_455  S
O64          C65   1.268       .  A
C65         C490   1.505       .  S
O66         Zr78   2.489       .  S
O66          C68   1.294       .  A
O67        Zr102   2.399   1_655  S
O67          C68   1.281       .  A
C68         C450   1.482       .  S
O69         Zr78   2.434       .  S
O69          C71   1.283       .  A
O70        Zr101   2.418       .  S
O70          C71   1.283       .  A
C71         C503   1.479       .  S
O72         Zr75   2.544       .  S
O72          C74   1.300       .  A
O73        Zr102   2.381       .  S
O73          C74   1.267       .  A
C74         C460   1.518       .  S
Zr75         O76   2.435       .  S
Zr75         O77   2.434       .  S
Zr75         O81   2.285   1_455  S
Zr75        O105   2.296       .  S
Zr75         O82   2.368   1_455  S
Zr75        O107   2.397       .  S
O76         H119   0.990       .  S
O77         H118   0.990       .  S
O77         H122   0.990       .  S
Zr78         O79   2.439       .  S
Zr78         O80   2.435       .  S
Zr78         O81   2.288       .  S
Zr78         O82   2.358       .  S
Zr78        O106   2.394       .  S
Zr78        O108   2.374       .  S
O79         H120   0.990       .  S
O79         H123   0.990       .  S
O80         H113   0.990       .  S
O81        Zr101   2.258       .  S
O82        Zr102   2.387   1_655  S
O82         H109   0.959       .  S
O83         Zr95   2.485       .  S
O83          C85   1.293       .  A
O84        Zr102   2.386       .  S
O84          C85   1.279       .  A
C85         C430   1.477       .  S
O86         Zr98   2.516       .  S
O86          C88   1.298       .  A
O87        Zr101   2.383       .  S
O87          C88   1.275       .  A
C88         C470   1.507       .  S
O89         Zr98   2.560       .  S
O89          C91   1.306       .  A
O90        Zr102   2.364   1_655  S
O90          C91   1.274       .  A
C91         C443   1.521       .  S
O92         Zr95   2.461       .  S
O92          C94   1.289       .  A
O93        Zr101   2.408   1_455  S
O93          C94   1.281       .  A
C94         C480   1.483       .  S
Zr95         O96   2.442       .  S
Zr95         O97   2.434       .  S
Zr95        O104   2.279   1_455  S
Zr95        O105   2.283       .  S
Zr95        O103   2.365       .  S
Zr95        O107   2.381       .  S
O96         H116   0.990       .  S
O96         H121   0.990       .  S
O97         H117   0.991       .  S
Zr98         O99   2.435       .  S
Zr98        O100   2.433       .  S
Zr98        O104   2.293       .  S
Zr98        O103   2.343   1_655  S
Zr98        O108   2.399       .  S
Zr98        O106   2.406       .  S
O99         H115   0.990       .  S
O100        H114   0.990       .  S
O100        H124   0.990       .  S
Zr101       O104   2.262       .  S
Zr101       O106   2.393       .  S
Zr101       O107   2.395   1_655  S
Zr102       O105   2.275       .  S
Zr102       O103   2.392       .  S
Zr102       O108   2.379   1_455  S
O103        H111   0.960       .  S
O106        H110   0.968       .  S
O107        H112   0.968       .  S
O125       Zr137   2.464       .  S
O125        C127   1.291       .  A
O126       Zr163   2.375       .  S
O126        C127   1.275       .  A
C127        C410   1.471       .  S
O128       Zr140   2.498       .  S
O128        C130   1.297       .  A
O129       Zr164   2.435   1_545  S
O129        C130   1.287       .  A
C130        C370   1.514       .  S
O131       Zr140   2.464       .  S
O131        C133   1.292       .  A
O132       Zr163   2.428   1_545  S
O132        C133   1.284       .  A
C133        C420   1.508       .  S
O134       Zr137   2.471       .  S
O134        C136   1.292       .  A
O135       Zr164   2.375       .  S
O135        C136   1.276       .  A
C136        C380   1.476       .  S
Zr137       O138   2.436       .  S
Zr137       O139   2.433       .  S
Zr137       O143   2.280       .  S
Zr137       O144   2.367       .  S
Zr137       O167   2.389       .  S
Zr137       O169   2.387       .  S
O138        H181   0.990       .  S
O139        H180   0.990       .  S
O139        H184   0.990       .  S
Zr140       O141   2.439       .  S
Zr140       O142   2.432       .  S
Zr140       O143   2.283   1_545  S
Zr140       O144   2.357   1_545  S
Zr140       O168   2.387       .  S
Zr140       O170   2.383       .  S
O141        H182   0.990       .  S
O141        H185   0.991       .  S
O142        H175   0.990       .  S
O143       Zr163   2.261       .  S
O144       Zr164   2.391       .  S
O144        H171   0.960       .  S
O145       Zr157   2.497       .  S
O145        C147   1.296       .  A
O146       Zr164   2.427       .  S
O146        C147   1.288       .  A
C147        C350   1.504       .  S
O148       Zr160   2.444       .  S
O148        C150   1.284       .  A
O149       Zr163   2.382   1_545  S
O149        C150   1.279       .  A
C150        C390   1.481       .  S
O151       Zr160   2.461       .  S
O151        C153   1.290       .  A
O152       Zr164   2.387   1_545  S
O152        C153   1.278       .  A
C153        C363   1.477       .  S
O154       Zr157   2.479       .  S
O154        C156   1.293       .  A
O155       Zr163   2.428       .  S
O155        C156   1.288       .  A
C156        C400   1.512       .  S
Zr157       O158   2.430       .  S
Zr157       O159   2.434       .  S
Zr157       O166   2.283   1_565  S
Zr157       O165   2.366   1_565  S
Zr157       O169   2.382       .  S
Zr157       O167   2.380       .  S
O158        H178   0.988       .  S
O158        H183   0.990       .  S
O159        H179   0.990       .  S
Zr160       O161   2.437       .  S
Zr160       O162   2.432       .  S
Zr160       O166   2.286       .  S
Zr160       O165   2.366       .  S
Zr160       O170   2.384       .  S
Zr160       O168   2.384       .  S
O161        H177   0.990       .  S
O162        H176   0.990       .  S
O162        H186   0.990       .  S
Zr163       O166   2.254   1_565  S
Zr163       O168   2.387   1_565  S
Zr163       O169   2.389       .  S
Zr164       O165   2.392   1_565  S
Zr164       O167   2.394       .  S
Zr164       O170   2.389   1_565  S
O165        H173   0.959       .  S
O168        H172   0.967       .  S
O169        H174   0.964       .  S
C187        C271   1.505       .  S
C187        C188   1.439       .  A
C187        C192   1.432       .  A
C188        C189   1.426       .  A
C188        H193   1.082       .  S
C189        C580   1.495       .  S
C189        C190   1.378       .  A
C190        C191   1.381       .  A
C190        H194   1.088       .  S
C191        C493   1.486       .  S
C191        C192   1.423       .  A
C192        H195   1.083   1_455  S
C196        C270   1.476       .  S
C196        C197   1.405       .  A
C196        C201   1.408       .  A
C197        C198   1.405       .  A
C197        H202   1.081       .  S
C198        C550   1.469       .  S
C198        C199   1.395       .  A
C199        C200   1.393       .  A
C199        H203   1.087       .  S
C200        C483   1.475       .  S
C200        C201   1.405       .  A
C201        H204   1.075       .  S
C205        C307   1.502       .  S
C205        C206   1.413       .  A
C205        C210   1.434       .  A
C206        C207   1.411       .  A
C206        H211   1.083       .  S
C207        C433   1.464       .  S
C207        C208   1.391       .  A
C208        C209   1.380       .  A
C208        H212   1.087       .  S
C209        C403   1.484       .  S
C209        C210   1.404       .  A
C210        H213   1.083       .  S
C214        C305   1.481       .  S
C214        C215   1.417       .  A
C214        C219   1.404       .  A
C215        C216   1.418       .  A
C215        H220   1.075       .  S
C216        C473   1.489       .  S
C216        C217   1.391       .  A
C217        C218   1.391       .  A
C217        H221   1.087       .  S
C218        C360   1.460       .  S
C218        C219   1.398       .  A
C219        H222   1.082       .  S
C223        C273   1.511       .  S
C223        C224   1.437       .  A
C223        C228   1.410       .  A
C224        C225   1.410       .  A
C224        H229   1.082       .  S
C225        C373   1.496       .  S
C225        C226   1.384       .  A
C226        C227   1.394       .  A
C226        H230   1.087       .  S
C227        C500   1.467       .  S
C227        C228   1.415       .  A
C228        H231   1.080       .  S
C232        C272   1.502       .  S
C232        C233   1.435       .  A
C232        C237   1.405       .  A
C233        C234   1.411       .  A
C233        H238   1.083       .  S
C234        C423   1.488       .  S
C234        C235   1.383       .  A
C235        C236   1.391       .  A
C235        H239   1.087       .  S
C236        C570   1.460       .  S
C236        C237   1.405       .  A
C237        H240   1.077       .  S
C241        C303   1.491       .  S
C241        C242   1.408       .  A
C241        C246   1.425       .  A
C242        C243   1.399       .  A
C242        H247   1.084       .  S
C243        C413   1.465       .  S
C243        C244   1.391       .  A
C244        C245   1.390       .  A
C244        H248   1.087       .  S
C245        C463   1.493       .  S
C245        C246   1.423       .  A
C246        H249   1.077       .  S
C250        C306   1.489       .  S
C250        C251   1.407       .  A
C250        C255   1.421       .  A
C251        C252   1.400       .  A
C251        H256   1.084       .  S
C252        C393   1.464       .  S
C252        C253   1.389       .  A
C253        C254   1.392       .  A
C253        H257   1.087       .  S
C254        C563   1.486       .  S
C254        C255   1.420       .  A
C255        H258   1.079       .  S
O259       Zr295   2.492       .  S
O259        C270   1.304       .  A
O260       Zr294   2.642   1_445  S
O260        C271   1.335       .  A
O261       Zr267   2.553       .  S
O261        C272   1.314       .  A
O262       Zr267   2.571   1_655  S
O262        C273   1.316       .  A
O263       Zr885   2.354   1_545  S
O263        C273   1.275       .  A
O264       Zr884   2.370   1_545  S
O264        C272   1.278       .  A
O265       Zr267   2.292       .  S
O265        C271   1.267       .  A
O266       Zr855   2.424   1_554  S
O266        C270   1.289       .  A
Zr267       O854   2.429       .  S
Zr267       O268   2.347   1_455  S
Zr267       O275   2.353       .  S
Zr267       O857   2.330       .  S
Zr267       O865   2.327   1_455  S
O268       Zr294   2.338   1_545  S
O268       Zr885   2.329   1_545  S
O269       Zr295   2.369       .  S
O269       Zr296   2.326   1_544  S
O269       Zr855   2.331   1_554  S
H274        O275   0.963       .  S
O275       Zr294   2.333   1_445  S
O275       Zr884   2.340   1_545  S
H276        O277   0.963       .  S
O277       Zr295   2.374   1_655  S
O277       Zr297   2.328   1_545  S
O277       Zr855   2.332   1_654  S
O278       Zr294   2.465       .  S
O278        C301   1.299       .  A
O279       Zr295   2.627   1_665  S
O279        C302   1.332       .  A
O280       Zr884   2.447       .  S
O280        C303   1.293       .  A
O281       Zr885   2.433       .  S
O281        C304   1.291       .  A
O282       Zr297   2.429   1_545  S
O282        C305   1.290       .  A
O283       Zr296   2.436   1_544  S
O283        C306   1.291       .  A
O284       Zr298   2.538   1_455  S
O284        C307   1.309       .  A
O285       Zr298   2.535       .  S
O285        C308   1.307       .  A
O286       Zr296   2.374   1_554  S
O286        C307   1.279       .  A
O287       Zr297   2.369       .  S
O287        C308   1.279       .  A
O288       Zr294   2.482   1_455  S
O288        C303   1.300       .  A
O289       Zr295   2.489       .  S
O289        C306   1.301       .  A
O290       Zr295   2.487   1_655  S
O290        C305   1.301       .  A
O291       Zr294   2.492       .  S
O291        C304   1.301       .  A
O292       Zr886   2.424       .  S
O292        C301   1.290       .  A
O293       Zr298   2.312       .  S
O293        C302   1.269       .  A
Zr294       O300   2.381   1_655  S
Zr294       O312   2.385       .  S
Zr295       O299   2.347   1_445  S
Zr295       O310   2.346   1_545  S
Zr296       O852   2.361   1_565  S
Zr296       O868   2.441       .  S
Zr296       O310   2.333   1_556  S
Zr296       O863   2.338   1_565  S
Zr296       O888   2.315       .  S
Zr297       O851   2.366   1_564  S
Zr297       O869   2.434   1_554  S
Zr297       O299   2.327       .  S
Zr297       O856   2.330   1_564  S
Zr297       O900   2.321   1_554  S
Zr298       O880   2.431   1_554  S
Zr298       O299   2.349       .  S
Zr298       O310   2.352   1_655  S
Zr298       O888   2.335   1_654  S
Zr298       O900   2.343   1_554  S
O300       Zr884   2.311       .  S
O300       Zr886   2.338   1_455  S
C301        C340   1.462       .  S
C302        C331   1.503       .  S
C304        C322   1.486       .  S
C308        C313   1.500       .  S
H309        O310   0.962       .  S
H311        O312   0.963       .  S
O312       Zr885   2.323       .  S
O312       Zr886   2.341       .  S
C313        C314   1.415       .  A
C313        C318   1.430       .  A
C314        C315   1.416       .  A
C314        H319   1.082       .  S
C315        C543   1.468       .  S
C315        C316   1.392       .  A
C316        C317   1.378       .  A
C316        H320   1.088       .  S
C317        C353   1.481       .  S
C317        C318   1.401       .  A
C318        H321   1.082       .  S
C322        C323   1.425       .  A
C322        C327   1.405       .  A
C323        C324   1.423       .  A
C323        H328   1.079       .  S
C324        C513   1.493       .  S
C324        C325   1.395       .  A
C325        C326   1.392       .  A
C325        H329   1.087       .  S
C326        C383   1.467       .  S
C326        C327   1.398       .  A
C327        H330   1.084       .  S
C331        C332   1.432       .  A
C331        C336   1.438       .  A
C332        C333   1.420       .  A
C332        H337   1.084       .  S
C333        C533   1.485       .  S
C333        C334   1.381       .  A
C334        C335   1.379       .  A
C334        H338   1.088       .  S
C335        C440   1.494       .  S
C335        C336   1.425       .  A
C336        H339   1.083   1_655  S
C340        C341   1.409       .  A
C340        C345   1.402       .  A
C341        C342   1.404       .  A
C341        H346   1.080       .  S
C342        C453   1.471       .  S
C342        C343   1.392       .  A
C343        C344   1.392       .  A
C343        H347   1.087       .  S
C344        C520   1.464       .  S
C344        C345   1.396       .  A
C345        H348   1.081       .  S
C349        C350   1.411       .  A
C349        C354   1.401       .  A
C349        H356   1.083       .  S
C350        C351   1.421       .  A
C351        C352   1.404       .  A
C351       Br358   1.913       .  S
C352        C353   1.400       .  A
C352        H357   1.084       .  S
C353        C354   1.409       .  A
C354       Br355   1.920       .  S
C359        C360   1.397       .  A
C359        C364   1.388       .  A
C359        H366   1.085       .  S
C360        C361   1.403       .  A
C361        C362   1.398       .  A
C361       Br368   1.917       .  S
C362        C363   1.409       .  A
C362        H367   1.083       .  S
C363        C364   1.413       .  A
C364       Br365   1.915       .  S
C369        C370   1.412       .  A
C369        C374   1.408       .  A
C369        H376   1.083       .  S
C370        C371   1.424       .  A
C371        C372   1.404       .  A
C371       Br378   1.913       .  S
C372        C373   1.400       .  A
C372        H377   1.084       .  S
C373        C374   1.412       .  A
C374       Br375   1.916       .  S
C379        C380   1.409       .  A
C379        C384   1.398       .  A
C379        H386   1.083       .  S
C380        C381   1.415       .  A
C381        C382   1.392       .  A
C381       Br388   1.929       .  S
C382        C383   1.402       .  A
C382        H387   1.084       .  S
C383        C384   1.403       .  A
C384       Br385   1.917       .  S
C389        C390   1.404       .  A
C389        C394   1.383       .  A
C389        H396   1.083       .  S
C390        C391   1.418       .  A
C391        C392   1.402       .  A
C391       Br398   1.919       .  S
C392        C393   1.401       .  A
C392        H397   1.083       .  S
C393        C394   1.404       .  A
C394       Br395   1.915       .  S
C399        C400   1.414       .  A
C399        C404   1.402       .  A
C399        H406   1.082       .  S
C400        C401   1.423       .  A
C401        C402   1.406       .  A
C401       Br408   1.912       .  S
C402        C403   1.401       .  A
C402        H407   1.084       .  S
C403        C404   1.405       .  A
C404       Br405   1.916       .  S
C409        C410   1.407       .  A
C409        C414   1.400       .  A
C409        H416   1.083       .  S
C410        C411   1.412       .  A
C411        C412   1.390       .  A
C411       Br418   1.925       .  S
C412        C413   1.402       .  A
C412        H417   1.085       .  S
C413        C414   1.403       .  A
C414       Br415   1.915       .  S
C419        C420   1.412       .  A
C419        C424   1.405       .  A
C419        H426   1.083       .  S
C420        C421   1.424       .  A
C421        C422   1.404       .  A
C421       Br428   1.924       .  S
C422        C423   1.402       .  A
C422        H427   1.084       .  S
C423        C424   1.409       .  A
C424       Br425   1.918       .  S
C429        C430   1.402       .  A
C429        C434   1.390       .  A
C429        H436   1.083       .  S
C430        C431   1.419       .  A
C431        C432   1.400       .  A
C431       Br438   1.918       .  S
C432        C433   1.398       .  A
C432        H437   1.084       .  S
C433        C434   1.408       .  A
C434       Br435   1.915       .  S
C439        C440   1.416       .  A
C439        C444   1.420       .  A
C439        H446   1.083       .  S
C440        C441   1.403       .  A
C441        C442   1.397       .  A
C441       Br448   1.922       .  S
C442        C443   1.420       .  A
C442        H447   1.082       .  S
C443        C444   1.417       .  A
C444       Br445   1.915       .  S
C449        C450   1.403       .  A
C449        C454   1.391       .  A
C449        H456   1.084       .  S
C450        C451   1.416       .  A
C451        C452   1.404       .  A
C451       Br458   1.918       .  S
C452        C453   1.402       .  A
C452        H457   1.083       .  S
C453        C454   1.407       .  A
C454       Br455   1.918       .  S
C459        C460   1.411       .  A
C459        C464   1.416       .  A
C459        H466   1.083       .  S
C460        C461   1.433       .  A
C461        C462   1.400       .  A
C461       Br468   1.926       .  S
C462        C463   1.395       .  A
C462        H467   1.085       .  S
C463        C464   1.414       .  A
C464       Br465   1.914       .  S
C469        C470   1.414       .  A
C469        C474   1.395       .  A
C469        H476   1.081       .  S
C470        C471   1.413       .  A
C471        C472   1.413       .  A
C471       Br478   1.916       .  S
C472        C473   1.414       .  A
C472        H477   1.083       .  S
C473        C474   1.404       .  A
C474       Br475   1.922       .  S
C479        C480   1.407       .  A
C479        C484   1.403       .  A
C479        H486   1.083       .  S
C480        C481   1.411       .  A
C481        C482   1.396       .  A
C481       Br488   1.917       .  S
C482        C483   1.402       .  A
C482        H487   1.084       .  S
C483        C484   1.406       .  A
C484       Br485   1.915       .  S
C489        C490   1.404       .  A
C489        C494   1.409       .  A
C489        H496   1.083       .  S
C490        C491   1.433       .  A
C491        C492   1.397       .  A
C491       Br498   1.927   1_455  S
C492        C493   1.392       .  A
C492        H497   1.084       .  S
C493        C494   1.420       .  A
C494       Br495   1.918       .  S
C499        C500   1.397       .  A
C499        C504   1.400       .  A
C499        H506   1.083       .  S
C500        C501   1.412       .  A
C501        C502   1.393       .  A
C501       Br508   1.922       .  S
C502        C503   1.401       .  A
C502        H507   1.083       .  S
C503        C504   1.420       .  A
C504       Br505   1.920       .  S
C509        C510   1.413       .  A
C509        C514   1.420       .  A
C509        H516   1.083       .  S
C510        C511   1.409       .  A
C511        C512   1.393       .  A
C511       Br518   1.920       .  S
C512        C513   1.404       .  A
C512        H517   1.082       .  S
C513        C514   1.413       .  A
C514       Br515   1.916       .  S
C519        C520   1.398       .  A
C519        C524   1.396       .  A
C519        H526   1.084       .  S
C520        C521   1.406       .  A
C521        C522   1.393       .  A
C521       Br528   1.919       .  S
C522        C523   1.407       .  A
C522        H527   1.083       .  S
C523        C524   1.417       .  A
C524       Br525   1.919       .  S
C529        C530   1.419       .  A
C529        C534   1.396       .  A
C529        H536   1.083       .  S
C530        C531   1.415       .  A
C531        C532   1.415       .  A
C531       Br538   1.915       .  S
C532        C533   1.415       .  A
C532        H537   1.083       .  S
C533        C534   1.400       .  A
C534       Br535   1.920       .  S
C539        C540   1.413       .  A
C539        C544   1.401       .  A
C539        H546   1.083       .  S
C540        C541   1.415       .  A
C541        C542   1.395       .  A
C541       Br548   1.921       .  S
C542        C543   1.404       .  A
C542        H547   1.084       .  S
C543        C544   1.403       .  A
C544       Br545   1.917       .  S
C549        C550   1.397       .  A
C549        C554   1.390       .  A
C549        H556   1.085       .  S
C550        C551   1.405       .  A
C551        C552   1.401       .  A
C551       Br558   1.915       .  S
C552        C553   1.409       .  A
C552        H557   1.083       .  S
C553        C554   1.416       .  A
C554       Br555   1.912       .  S
C559        C560   1.414       .  A
C559        C564   1.394       .  A
C559        H566   1.082       .  S
C560        C561   1.415       .  A
C561        C562   1.413       .  A
C561       Br568   1.917       .  S
C562        C563   1.412       .  A
C562        H567   1.083       .  S
C563        C564   1.401       .  A
C564       Br565   1.920       .  S
C569        C570   1.397       .  A
C569        C574   1.397       .  A
C569        H576   1.084       .  S
C570        C571   1.406       .  A
C571        C572   1.391       .  A
C571       Br578   1.922       .  S
C572        C573   1.408       .  A
C572        H577   1.083       .  S
C573        C574   1.420       .  A
C574       Br575   1.922       .  S
C579        C580   1.405       .  A
C579        C584   1.399       .  A
C579        H586   1.085       .  S
C580        C581   1.424       .  A
C581        C582   1.417       .  A
C581       Br588   1.916       .  S
C582        C583   1.405       .  A
C582        H587   1.083       .  S
C583        C584   1.406       .  A
C584       Br585   1.911       .  S
O589       Zr601   2.437       .  S
O589        C591   1.284       .  A
O590       Zr627   2.399       .  S
O590        C591   1.280       .  A
C591       C1161   1.482       .  S
O592       Zr604   2.536       .  S
O592        C594   1.303       .  A
O593       Zr628   2.366       .  S
O593        C594   1.277       .  A
C594       C1098   1.492       .  S
O595       Zr604   2.511       .  S
O595        C597   1.299       .  A
O596       Zr627   2.388       .  S
O596        C597   1.280       .  A
C597       C1171   1.496       .  S
O598       Zr601   2.467       .  S
O598        C600   1.291       .  A
O599       Zr628   2.397       .  S
O599        C600   1.281       .  A
C600       C1111   1.481       .  S
Zr601       O602   2.438       .  S
Zr601       O603   2.438       .  S
Zr601       O607   2.283       .  S
Zr601       O608   2.360       .  S
Zr601       O631   2.377       .  S
Zr601       O633   2.377       .  S
O602        H645   0.990       .  S
O603        H644   0.990       .  S
O603        H648   0.990       .  S
Zr604       O605   2.438       .  S
Zr604       O606   2.434       .  S
Zr604       O607   2.289       .  S
Zr604       O608   2.364       .  S
Zr604       O632   2.400       .  S
Zr604       O634   2.395       .  S
O605        H646   0.990       .  S
O605        H649   0.991       .  S
O606        H639   0.990       .  S
O607       Zr627   2.247       .  S
O608       Zr628   2.374       .  S
O608        H635   0.960       .  S
O609       Zr621   2.548       .  S
O609        C611   1.305       .  A
O610       Zr628   2.347       .  S
O610        C611   1.273       .  A
C611       C1118   1.508       .  S
O612       Zr624   2.451       .  S
O612        C614   1.289       .  A
O613       Zr627   2.388       .  S
O613        C614   1.277       .  A
C614       C1141   1.481       .  S
O615       Zr624   2.456       .  S
O615        C617   1.289       .  A
O616       Zr628   2.408       .  S
O616        C617   1.278       .  A
C617       C1128   1.487       .  S
O618       Zr621   2.505       .  S
O618        C620   1.296       .  A
O619       Zr627   2.381       .  S
O619        C620   1.275       .  A
C620       C1148   1.504       .  S
Zr621       O622   2.438       .  S
Zr621       O623   2.432       .  S
Zr621       O630   2.295       .  S
Zr621       O629   2.344       .  S
Zr621       O633   2.400       .  S
Zr621       O631   2.395       .  S
O622        H642   0.990       .  S
O622        H647   0.991       .  S
O623        H643   0.990       .  S
Zr624       O625   2.438       .  S
Zr624       O626   2.435       .  S
Zr624       O630   2.279       .  S
Zr624       O629   2.380       .  S
Zr624       O634   2.390       .  S
Zr624       O632   2.388       .  S
O625        H641   0.990       .  S
O626        H640   0.990       .  S
O626        H650   0.990       .  S
Zr627       O630   2.260       .  S
Zr627       O632   2.384       .  S
Zr627       O633   2.389       .  S
Zr628       O629   2.383       .  S
Zr628       O631   2.383       .  S
Zr628       O634   2.378       .  S
O629        H637   0.961       .  S
O632        H636   0.964       .  S
O633        H638   0.968       .  S
O651       Zr663   2.518       .  S
O651        C653   1.300       .  A
O652       Zr689   2.364   1_455  S
O652        C653   1.268       .  A
C653       C1078   1.501       .  S
O654       Zr666   2.487       .  S
O654        C656   1.294       .  A
O655       Zr690   2.397   1_655  S
O655        C656   1.281       .  A
C656       C1038   1.482       .  S
O657       Zr666   2.439       .  S
O657        C659   1.285       .  A
O658       Zr689   2.422       .  S
O658        C659   1.284       .  A
C659       C1091   1.483       .  S
O660       Zr663   2.543       .  S
O660        C662   1.299       .  A
O661       Zr690   2.385       .  S
O661        C662   1.266       .  A
C662       C1048   1.521       .  S
Zr663       O664   2.437       .  S
Zr663       O665   2.435       .  S
Zr663       O669   2.285   1_455  S
Zr663       O693   2.300       .  S
Zr663       O670   2.372   1_455  S
Zr663       O695   2.398       .  S
O664        H707   0.990       .  S
O665        H706   0.991       .  S
O665        H710   0.990       .  S
Zr666       O667   2.439       .  S
Zr666       O668   2.435       .  S
Zr666       O669   2.286       .  S
Zr666       O670   2.361       .  S
Zr666       O694   2.394       .  S
Zr666       O696   2.376       .  S
O667        H708   0.989       .  S
O667        H711   0.990       .  S
O668        H701   0.990       .  S
O669       Zr689   2.258       .  S
O670       Zr690   2.389   1_655  S
O670        H697   0.959       .  S
O671       Zr683   2.478       .  S
O671        C673   1.291       .  A
O672       Zr690   2.399       .  S
O672        C673   1.280       .  A
C673       C1018   1.485       .  S
O674       Zr686   2.524       .  S
O674        C676   1.300       .  A
O675       Zr689   2.387       .  S
O675        C676   1.276       .  A
C676       C1058   1.510       .  S
O677       Zr686   2.559       .  S
O677        C679   1.309       .  A
O678       Zr690   2.353   1_655  S
O678        C679   1.275       .  A
C679       C1031   1.514       .  S
O680       Zr683   2.444       .  S
O680        C682   1.285       .  A
O681       Zr689   2.407   1_455  S
O681        C682   1.280       .  A
C682       C1068   1.474       .  S
Zr683       O684   2.441       .  S
Zr683       O685   2.434       .  S
Zr683       O692   2.284   1_455  S
Zr683       O693   2.282       .  S
Zr683       O691   2.369       .  S
Zr683       O695   2.384       .  S
O684        H704   0.990       .  S
O684        H709   0.990       .  S
O685        H705   0.991       .  S
Zr686       O687   2.435       .  S
Zr686       O688   2.434       .  S
Zr686       O692   2.293       .  S
Zr686       O691   2.339   1_655  S
Zr686       O696   2.399       .  S
Zr686       O694   2.400       .  S
O687        H703   0.990       .  S
O688        H702   0.991       .  S
O688        H712   0.990       .  S
Zr689       O692   2.263       .  S
Zr689       O694   2.391       .  S
Zr689       O695   2.392   1_655  S
Zr690       O693   2.273       .  S
Zr690       O691   2.386       .  S
Zr690       O696   2.386   1_455  S
O691        H699   0.962       .  S
O694        H698   0.968       .  S
O695        H700   0.968       .  S
O713       Zr725   2.461       .  S
O713        C715   1.290       .  A
O714       Zr751   2.375   1_565  S
O714        C715   1.275       .  A
C715        C998   1.471       .  S
O716       Zr728   2.496       .  S
O716        C718   1.297       .  A
O717       Zr752   2.429   1_545  S
O717        C718   1.286       .  A
C718        C958   1.511       .  S
O719       Zr728   2.458       .  S
O719        C721   1.291       .  A
O720       Zr751   2.412       .  S
O720        C721   1.281       .  A
C721       C1008   1.500       .  S
O722       Zr725   2.477       .  S
O722        C724   1.293       .  A
O723       Zr752   2.385       .  S
O723        C724   1.277       .  A
C724        C968   1.481       .  S
Zr725       O726   2.437       .  S
Zr725       O727   2.433       .  S
Zr725       O731   2.282       .  S
Zr725       O732   2.371       .  S
Zr725       O755   2.385       .  S
Zr725       O757   2.389       .  S
O726        H769   0.990       .  S
O727        H768   0.990       .  S
O727        H772   0.990       .  S
Zr728       O729   2.440       .  S
Zr728       O730   2.433       .  S
Zr728       O731   2.285   1_545  S
Zr728       O732   2.350   1_545  S
Zr728       O756   2.385       .  S
Zr728       O758   2.384       .  S
O729        H770   0.990       .  S
O729        H773   0.991       .  S
O730        H763   0.991       .  S
O731       Zr751   2.262   1_565  S
O732       Zr752   2.387       .  S
O732        H759   0.961       .  S
O733       Zr745   2.470       .  S
O733        C735   1.292       .  A
O734       Zr752   2.435       .  S
O734        C735   1.290       .  A
C735        C938   1.504       .  S
O736       Zr748   2.457       .  S
O736        C738   1.286       .  A
O737       Zr751   2.383       .  S
O737        C738   1.277       .  A
C738        C978   1.485       .  S
O739       Zr748   2.472       .  S
O739        C741   1.292       .  A
O740       Zr752   2.382   1_545  S
O740        C741   1.277       .  A
C741        C951   1.474       .  S
O742       Zr745   2.454       .  S
O742        C744   1.287       .  A
O743       Zr751   2.436   1_565  S
O743        C744   1.288       .  A
C744        C988   1.507       .  S
Zr745       O746   2.432       .  S
Zr745       O747   2.434       .  S
Zr745       O754   2.266   1_565  S
Zr745       O753   2.355   1_565  S
Zr745       O757   2.387       .  S
Zr745       O755   2.391       .  S
O746        H766   0.990       .  S
O746        H771   0.989       .  S
O747        H767   0.990       .  S
Zr748       O749   2.437       .  S
Zr748       O750   2.433       .  S
Zr748       O754   2.277       .  S
Zr748       O753   2.371       .  S
Zr748       O758   2.386       .  S
Zr748       O756   2.389       .  S
O749        H765   0.990       .  S
O750        H764   0.990       .  S
O750        H774   0.990       .  S
Zr751       O754   2.244       .  S
Zr751       O756   2.392       .  S
Zr751       O757   2.386   1_545  S
Zr752       O753   2.384   1_565  S
Zr752       O755   2.391       .  S
Zr752       O758   2.394   1_565  S
O753        H761   0.961       .  S
O756        H760   0.967       .  S
O757        H762   0.964       .  S
C775        C859   1.504       .  S
C775        C776   1.441       .  A
C775        C780   1.430       .  A
C776        C777   1.427       .  A
C776        H781   1.082       .  S
C777       C1168   1.495       .  S
C777        C778   1.377       .  A
C778        C779   1.381       .  A
C778        H782   1.088       .  S
C779       C1081   1.483       .  S
C779        C780   1.421       .  A
C780        H783   1.083   1_455  S
C784        C858   1.475       .  S
C784        C785   1.405       .  A
C784        C789   1.405       .  A
C785        C786   1.405       .  A
C785        H790   1.082       .  S
C786       C1138   1.467       .  S
C786        C787   1.396       .  A
C787        C788   1.391       .  A
C787        H791   1.087       .  S
C788       C1071   1.472       .  S
C788        C789   1.403       .  A
C789        H792   1.071       .  S
C793        C895   1.503       .  S
C793        C794   1.419       .  A
C793        C798   1.431       .  A
C794        C795   1.415       .  A
C794        H799   1.082       .  S
C795       C1021   1.468       .  S
C795        C796   1.388       .  A
C796        C797   1.376       .  A
C796        H800   1.088       .  S
C797        C991   1.479       .  S
C797        C798   1.401       .  A
C798        H801   1.083       .  S
C802        C893   1.481       .  S
C802        C803   1.418       .  A
C802        C807   1.404       .  A
C803        C804   1.416       .  A
C803        H808   1.071       .  S
C804       C1061   1.490       .  S
C804        C805   1.389       .  A
C805        C806   1.391       .  A
C805        H809   1.087       .  S
C806        C948   1.459       .  S
C806        C807   1.399       .  A
C807        H810   1.083       .  S
C811        C861   1.510       .  S
C811        C812   1.433       .  A
C811        C816   1.412       .  A
C812        C813   1.407       .  A
C812        H817   1.082       .  S
C813        C961   1.492       .  S
C813        C814   1.384       .  A
C814        C815   1.393       .  A
C814        H818   1.087       .  S
C815       C1088   1.471       .  S
C815        C816   1.417       .  A
C816        H819   1.078       .  S
C820        C860   1.499       .  S
C820        C821   1.429       .  A
C820        C825   1.404       .  A
C821        C822   1.404       .  A
C821        H826   1.083       .  S
C822       C1011   1.481       .  S
C822        C823   1.384       .  A
C823        C824   1.392       .  A
C823        H827   1.087       .  S
C824       C1158   1.463       .  S
C824        C825   1.408       .  A
C825        H828   1.075       .  S
C829        C891   1.496       .  S
C829        C830   1.406       .  A
C829        C834   1.427       .  A
C830        C831   1.398       .  A
C830        H835   1.084       .  S
C831       C1001   1.464       .  S
C831        C832   1.392       .  A
C832        C833   1.393       .  A
C832        H836   1.087       .  S
C833       C1051   1.497       .  S
C833        C834   1.427       .  A
C834        H837   1.077       .  S
C838        C894   1.482       .  S
C838        C839   1.408       .  A
C838        C843   1.418       .  A
C839        C840   1.401       .  A
C839        H844   1.083       .  S
C840        C981   1.466       .  S
C840        C841   1.390       .  A
C841        C842   1.391       .  A
C841        H845   1.087       .  S
C842       C1151   1.481       .  S
C842        C843   1.416       .  A
C843        H846   1.081       .  S
O847       Zr883   2.484       .  S
O847        C858   1.302       .  A
O848       Zr882   2.638   1_445  S
O848        C859   1.334       .  A
O849       Zr855   2.545       .  S
O849        C860   1.311       .  A
O850       Zr855   2.556   1_655  S
O850        C861   1.313       .  A
O851        C861   1.278       .  A
O852        C860   1.277       .  A
O853       Zr855   2.297       .  S
O853        C859   1.267       .  A
O854        C858   1.291       .  A
Zr855       O856   2.350   1_455  S
Zr855       O863   2.354       .  S
O856       Zr882   2.343   1_545  S
O857       Zr883   2.372       .  S
O857       Zr884   2.333   1_545  S
H862        O863   0.964       .  S
O863       Zr882   2.344   1_445  S
H864        O865   0.963       .  S
O865       Zr883   2.370   1_655  S
O865       Zr885   2.331   1_545  S
O866       Zr882   2.464       .  S
O866        C889   1.299       .  A
O867       Zr883   2.619   1_665  S
O867        C890   1.330       .  A
O868        C891   1.292       .  A
O869        C892   1.291       .  A
O870       Zr885   2.423   1_545  S
O870        C893   1.288       .  A
O871       Zr884   2.429   1_545  S
O871        C894   1.290       .  A
O872       Zr886   2.526   1_455  S
O872        C895   1.305       .  A
O873       Zr886   2.530       .  S
O873        C896   1.307       .  A
O874       Zr884   2.390       .  S
O874        C895   1.282       .  A
O875       Zr885   2.367       .  S
O875        C896   1.278       .  A
O876       Zr882   2.497   1_455  S
O876        C891   1.303       .  A
O877       Zr883   2.484       .  S
O877        C894   1.301       .  A
O878       Zr883   2.498   1_655  S
O878        C893   1.303       .  A
O879       Zr882   2.510       .  S
O879        C892   1.304       .  A
O880        C889   1.292       .  A
O881       Zr886   2.309       .  S
O881        C890   1.269       .  A
Zr882       O888   2.380   1_655  S
Zr882       O900   2.381       .  S
Zr883       O887   2.343   1_445  S
Zr883       O898   2.346   1_545  S
Zr884       O898   2.335       .  S
Zr885       O887   2.324       .  S
Zr886       O887   2.346       .  S
Zr886       O898   2.347   1_655  S
C889        C928   1.464       .  S
C890        C919   1.499       .  S
C892        C910   1.496       .  S
C896        C901   1.497       .  S
H897        O898   0.962       .  S
H899        O900   0.963       .  S
C901        C902   1.412       .  A
C901        C906   1.430       .  A
C902        C903   1.411       .  A
C902        H907   1.082       .  S
C903       C1131   1.463       .  S
C903        C904   1.392       .  A
C904        C905   1.379       .  A
C904        H908   1.088       .  S
C905        C941   1.482       .  S
C905        C906   1.402       .  A
C906        H909   1.083       .  S
C910        C911   1.426       .  A
C910        C915   1.409       .  A
C911        C912   1.425       .  A
C911        H916   1.079       .  S
C912       C1101   1.496       .  S
C912        C913   1.395       .  A
C913        C914   1.391       .  A
C913        H917   1.087       .  S
C914        C971   1.471       .  S
C914        C915   1.402       .  A
C915        H918   1.083       .  S
C919        C920   1.431       .  A
C919        C924   1.438       .  A
C920        C921   1.419       .  A
C920        H925   1.084       .  S
C921       C1121   1.481       .  S
C921        C922   1.379       .  A
C922        C923   1.377       .  A
C922        H926   1.089       .  S
C923       C1028   1.489       .  S
C923        C924   1.424       .  A
C924        H927   1.083   1_655  S
C928        C929   1.407       .  A
C928        C933   1.405       .  A
C929        C930   1.402       .  A
C929        H934   1.080       .  S
C930       C1041   1.470       .  S
C930        C931   1.391       .  A
C931        C932   1.393       .  A
C931        H935   1.086       .  S
C932       C1108   1.466       .  S
C932        C933   1.400       .  A
C933        H936   1.082       .  S
C937        C938   1.411       .  A
C937        C942   1.400       .  A
C937        H944   1.083       .  S
C938        C939   1.423       .  A
C939        C940   1.403       .  A
C939       Br946   1.915       .  S
C940        C941   1.400       .  A
C940        H945   1.084       .  S
C941        C942   1.408       .  A
C942       Br943   1.919       .  S
C947        C948   1.398       .  A
C947        C952   1.390       .  A
C947        H954   1.085       .  S
C948        C949   1.404       .  A
C949        C950   1.398       .  A
C949       Br956   1.918       .  S
C950        C951   1.408       .  A
C950        H955   1.083       .  S
C951        C952   1.412       .  A
C952       Br953   1.918       .  S
C957        C958   1.412       .  A
C957        C962   1.406       .  A
C957        H964   1.082       .  S
C958        C959   1.424       .  A
C959        C960   1.404       .  A
C959       Br966   1.917       .  S
C960        C961   1.400       .  A
C960        H965   1.084       .  S
C961        C962   1.410       .  A
C962       Br963   1.917       .  S
C967        C968   1.411       .  A
C967        C972   1.402       .  A
C967        H974   1.083       .  S
C968        C969   1.415       .  A
C969        C970   1.393       .  A
C969       Br976   1.927       .  S
C970        C971   1.401       .  A
C970        H975   1.084       .  S
C971        C972   1.404       .  A
C972       Br973   1.917       .  S
C977        C978   1.407       .  A
C977        C982   1.386       .  A
C977        H984   1.083       .  S
C978        C979   1.417       .  A
C979        C980   1.402       .  A
C979       Br986   1.919       .  S
C980        C981   1.402       .  A
C980        H985   1.084       .  S
C981        C982   1.405       .  A
C982       Br983   1.917       .  S
C987        C988   1.412       .  A
C987        C992   1.402       .  A
C987        H994   1.082       .  S
C988        C989   1.424       .  A
C989        C990   1.402       .  A
C989       Br996   1.918       .  S
C990        C991   1.399       .  A
C990        H995   1.084       .  S
C991        C992   1.405       .  A
C992       Br993   1.917       .  S
C997        C998   1.407       .  A
C997       C1002   1.399       .  A
C997       H1004   1.083       .  S
C998        C999   1.412       .  A
C999       C1000   1.389       .  A
C999      Br1006   1.925       .  S
C1000      C1001   1.401       .  A
C1000      H1005   1.085       .  S
C1001      C1002   1.403       .  A
C1002     Br1003   1.915       .  S
C1007      C1008   1.412       .  A
C1007      C1012   1.403       .  A
C1007      H1014   1.083       .  S
C1008      C1009   1.424       .  A
C1009      C1010   1.400       .  A
C1009     Br1016   1.926       .  S
C1010      C1011   1.401       .  A
C1010      H1015   1.084       .  S
C1011      C1012   1.405       .  A
C1012     Br1013   1.916       .  S
C1017      C1018   1.403       .  A
C1017      C1022   1.391       .  A
C1017      H1024   1.082       .  S
C1018      C1019   1.421       .  A
C1019      C1020   1.402       .  A
C1019     Br1026   1.918       .  S
C1020      C1021   1.399       .  A
C1020      H1025   1.084       .  S
C1021      C1022   1.411       .  A
C1022     Br1023   1.916       .  S
C1027      C1028   1.415       .  A
C1027      C1032   1.417       .  A
C1027      H1034   1.083       .  S
C1028      C1029   1.404       .  A
C1029      C1030   1.397       .  A
C1029     Br1036   1.923       .  S
C1030      C1031   1.419       .  A
C1030      H1035   1.083       .  S
C1031      C1032   1.415       .  A
C1032     Br1033   1.915       .  S
C1037      C1038   1.404       .  A
C1037      C1042   1.392       .  A
C1037      H1044   1.084       .  S
C1038      C1039   1.415       .  A
C1039      C1040   1.403       .  A
C1039     Br1046   1.917       .  S
C1040      C1041   1.401       .  A
C1040      H1045   1.083       .  S
C1041      C1042   1.407       .  A
C1042     Br1043   1.918       .  S
C1047      C1048   1.412       .  A
C1047      C1052   1.419       .  A
C1047      H1054   1.083       .  S
C1048      C1049   1.433       .  A
C1049      C1050   1.400       .  A
C1049     Br1056   1.924       .  S
C1050      C1051   1.395       .  A
C1050      H1055   1.085       .  S
C1051      C1052   1.416       .  A
C1052     Br1053   1.915       .  S
C1057      C1058   1.415       .  A
C1057      C1062   1.396       .  A
C1057      H1064   1.081       .  S
C1058      C1059   1.413       .  A
C1059      C1060   1.415       .  A
C1059     Br1066   1.915       .  S
C1060      C1061   1.414       .  A
C1060      H1065   1.083       .  S
C1061      C1062   1.404       .  A
C1062     Br1063   1.922       .  S
C1067      C1068   1.405       .  A
C1067      C1072   1.400       .  A
C1067      H1074   1.083       .  S
C1068      C1069   1.408       .  A
C1069      C1070   1.396       .  A
C1069     Br1076   1.916       .  S
C1070      C1071   1.403       .  A
C1070      H1075   1.084       .  S
C1071      C1072   1.405       .  A
C1072     Br1073   1.915       .  S
C1077      C1078   1.404       .  A
C1077      C1082   1.406       .  A
C1077      H1084   1.083       .  S
C1078      C1079   1.432       .  A
C1079      C1080   1.397       .  A
C1079     Br1086   1.930   1_455  S
C1080      C1081   1.393       .  A
C1080      H1085   1.084       .  S
C1081      C1082   1.419       .  A
C1082     Br1083   1.919       .  S
C1087      C1088   1.398       .  A
C1087      C1092   1.401       .  A
C1087      H1094   1.083       .  S
C1088      C1089   1.412       .  A
C1089      C1090   1.396       .  A
C1089     Br1096   1.921       .  S
C1090      C1091   1.402       .  A
C1090      H1095   1.083       .  S
C1091      C1092   1.420       .  A
C1092     Br1093   1.922       .  S
C1097      C1098   1.412       .  A
C1097      C1102   1.419       .  A
C1097      H1104   1.083       .  S
C1098      C1099   1.408       .  A
C1099      C1100   1.395       .  A
C1099     Br1106   1.920       .  S
C1100      C1101   1.406       .  A
C1100      H1105   1.082       .  S
C1101      C1102   1.414       .  A
C1102     Br1103   1.915       .  S
C1107      C1108   1.400       .  A
C1107      C1112   1.398       .  A
C1107      H1114   1.084       .  S
C1108      C1109   1.406       .  A
C1109      C1110   1.393       .  A
C1109     Br1116   1.919       .  S
C1110      C1111   1.406       .  A
C1110      H1115   1.083       .  S
C1111      C1112   1.416       .  A
C1112     Br1113   1.920       .  S
C1117      C1118   1.419       .  A
C1117      C1122   1.393       .  A
C1117      H1124   1.083       .  S
C1118      C1119   1.413       .  A
C1119      C1120   1.414       .  A
C1119     Br1126   1.915       .  S
C1120      C1121   1.415       .  A
C1120      H1125   1.083       .  S
C1121      C1122   1.400       .  A
C1122     Br1123   1.921       .  S
C1127      C1128   1.414       .  A
C1127      C1132   1.399       .  A
C1127      H1134   1.083       .  S
C1128      C1129   1.416       .  A
C1129      C1130   1.393       .  A
C1129     Br1136   1.920       .  S
C1130      C1131   1.402       .  A
C1130      H1135   1.085       .  S
C1131      C1132   1.401       .  A
C1132     Br1133   1.917       .  S
C1137      C1138   1.399       .  A
C1137      C1142   1.389       .  A
C1137      H1144   1.085       .  S
C1138      C1139   1.404       .  A
C1139      C1140   1.398       .  A
C1139     Br1146   1.913       .  S
C1140      C1141   1.408       .  A
C1140      H1145   1.083       .  S
C1141      C1142   1.415       .  A
C1142     Br1143   1.913       .  S
C1147      C1148   1.414       .  A
C1147      C1152   1.392       .  A
C1147      H1154   1.082       .  S
C1148      C1149   1.415       .  A
C1149      C1150   1.413       .  A
C1149     Br1156   1.916       .  S
C1150      C1151   1.411       .  A
C1150      H1155   1.083       .  S
C1151      C1152   1.401       .  A
C1152     Br1153   1.921       .  S
C1157      C1158   1.397       .  A
C1157      C1162   1.397       .  A
C1157      H1164   1.084       .  S
C1158      C1159   1.408       .  A
C1159      C1160   1.393       .  A
C1159     Br1166   1.921       .  S
C1160      C1161   1.407       .  A
C1160      H1165   1.083       .  S
C1161      C1162   1.420       .  A
C1162     Br1163   1.923       .  S
C1167      C1168   1.406       .  A
C1167      C1172   1.399       .  A
C1167      H1174   1.085       .  S
C1168      C1169   1.424       .  A
C1169      C1170   1.415       .  A
C1169     Br1176   1.914       .  S
C1170      C1171   1.403       .  A
C1170      H1175   1.083       .  S
C1171      C1172   1.405       .  A
C1172     Br1173   1.911       .  S
