geometry optimzed in LAMMPS
_audit_creation_date              2020-11-30 
_audit_creation_method            'lammps2cif' 
_symmetry_space_group_name_H-M    'P1' 
_symmetry_Int_Tables_number       1 
_symmetry_cell_setting            triclinic 
loop_ 
_symmetry_equiv_pos_as_xyz 
  x,y,z 
_cell_length_a                    93.56407263 
_cell_length_b                    93.51816533390647 
_cell_length_c                    93.45231754679708 
_cell_angle_alpha                 89.95318435706301 
_cell_angle_beta                  89.95527554703013 
_cell_angle_gamma                 89.98057617777415 
loop_ 
_atom_site_label 
_atom_site_type_symbol 
_atom_site_fract_x 
_atom_site_fract_y 
_atom_site_fract_z 
_atom_site_charge 
N1          N  0.42614286  0.46771769  0.60071412    -0.27300
N2          N  0.43709620  0.46840056  0.59177259    -0.35200
C3          C  0.43597896  0.48042688  0.58387571     0.01000
C4          C  0.42380844  0.48777116  0.58807717     0.07000
C5          C  0.41786293  0.47939024  0.59881107    -0.06100
H6          H  0.44354619  0.48364307  0.57572808     0.07700
H7          H  0.40812815  0.48153297  0.60468719     0.08900
Cu8        Cu  0.45324033  0.45294233  0.59086275     0.44200
Cu9        Cu  0.42293646  0.45055345  0.61479754     0.42000
Cu10       Cu  0.45078873  0.42290778  0.61533862     0.43900
N11         N  0.46848193  0.43659574  0.59187076    -0.34700
N12         N  0.46779687  0.42578008  0.60098926    -0.29000
C13         C  0.47932938  0.41731981  0.59903413    -0.05100
C14         C  0.48762239  0.42300584  0.58809595     0.07100
C15         C  0.48037234  0.43521208  0.58382275     0.00900
H16         H  0.48143832  0.40764463  0.60502346     0.08600
H17         H  0.48355785  0.44262246  0.57551963     0.07700
N18         N  0.43207254  0.42208241  0.62767253    -0.36200
N19         N  0.42198706  0.43202252  0.62739120    -0.28300
C20         C  0.41120351  0.42796559  0.63607571    -0.03600
C21         C  0.41460599  0.41486570  0.64213646     0.05000
C22         C  0.42793384  0.41149306  0.63657260     0.03100
H23         H  0.40148475  0.43402503  0.63768461     0.08200
H24         H  0.43406593  0.40190199  0.63862151     0.07100
N25         N  0.40338137  0.56166218  0.53630328    -0.27300
N26         N  0.41277559  0.55108936  0.53553537    -0.35200
C27         C  0.42018400  0.55234346  0.52319048     0.01000
C28         C  0.41524360  0.56422873  0.51576858     0.07000
C29         C  0.40455708  0.56982149  0.52442621    -0.06100
H30         H  0.42865174  0.54518073  0.51990811     0.07700
H31         H  0.39829252  0.57932901  0.52238647     0.08900
Cu32       Cu  0.41521760  0.53538373  0.55147518     0.44200
Cu33       Cu  0.38982742  0.56501661  0.55394388     0.42000
Cu34       Cu  0.39225559  0.53899038  0.58268586     0.43900
N35         N  0.41477370  0.52055422  0.56839864    -0.34700
N36         N  0.40609152  0.52170907  0.57953208    -0.29000
C37         C  0.40791906  0.51027325  0.58814805    -0.05100
C38         C  0.41834455  0.50151923  0.58228724     0.07100
C39         C  0.42246889  0.50841539  0.56978396     0.00900
H40         H  0.40214812  0.50852066  0.59803156     0.08600
H41         H  0.43034334  0.50475858  0.56213270     0.07700
N42         N  0.37947945  0.55731354  0.58378116    -0.36200
N43         N  0.37838738  0.56672384  0.57324973    -0.28300
C44         C  0.36934030  0.57720879  0.57734321    -0.03600
C45         C  0.36456105  0.57432630  0.59112872     0.05000
C46         C  0.37124928  0.56161973  0.59483046     0.03100
H47         H  0.36657126  0.58635805  0.57082176     0.08200
H48         H  0.37021288  0.55590017  0.60484327     0.07100
N49         N  0.52129040  0.40485628  0.57937810    -0.27300
N50         N  0.52031081  0.41376694  0.56840618    -0.35200
C51         C  0.50825444  0.42156996  0.56983132     0.01000
C52         C  0.50123863  0.41732234  0.58221885     0.07000
C53         C  0.50982604  0.40668091  0.58795524    -0.06100
H54         H  0.50480020  0.42968902  0.56234423     0.07700
H55         H  0.50796825  0.40080022  0.59775424     0.08900
Cu56       Cu  0.53544589  0.41470962  0.55182446     0.44200
Cu57       Cu  0.53845727  0.39080770  0.58239911     0.42000
Cu58       Cu  0.56521968  0.38965547  0.55424165     0.43900
N59         N  0.55178474  0.41323362  0.53646982    -0.34700
N60         N  0.56241512  0.40391390  0.53721650    -0.29000
C61         C  0.57103980  0.40570892  0.52577686    -0.05100
C62         C  0.56569651  0.41675438  0.51745110     0.07100
C63         C  0.55347803  0.42125687  0.52458105     0.00900
H64         H  0.58067406  0.39961165  0.52382867     0.08600
H65         H  0.54635568  0.42979185  0.52138690     0.07700
N66         N  0.56645391  0.37741967  0.57294717    -0.36200
N67         N  0.55676696  0.37794898  0.58326202    -0.28300
C68         C  0.56085856  0.36918970  0.59397199    -0.03600
C69         C  0.57371973  0.36280178  0.59025471     0.05000
C70         C  0.57691810  0.36827890  0.57683514     0.03100
H71         H  0.55492783  0.36764755  0.60379508     0.08200
H72         H  0.58625934  0.36592594  0.57042496     0.07100
N73         N  0.58521185  0.42607760  0.48461685    -0.27300
N74         N  0.57618427  0.43694488  0.48550477    -0.35200
C75         C  0.56790159  0.43523926  0.49718934     0.01000
C76         C  0.57189321  0.42275535  0.50410387     0.07000
C77         C  0.58293548  0.41724367  0.49583188    -0.06100
H78         H  0.55962638  0.44262670  0.50046478     0.07700
H79         H  0.58879473  0.40745598  0.49775145     0.08900
Cu80       Cu  0.57550140  0.45384327  0.47088514     0.44200
Cu81       Cu  0.59993210  0.42370246  0.46778562     0.42000
Cu82       Cu  0.60002263  0.45250555  0.44107195     0.43900
N83         N  0.57670945  0.46989679  0.45537158    -0.34700
N84         N  0.58586193  0.46961097  0.44457389    -0.29000
C85         C  0.58413167  0.48160851  0.43670707    -0.05100
C86         C  0.57330098  0.48978608  0.44276706     0.07100
C87         C  0.56886035  0.48197316  0.45457070     0.00900
H88         H  0.59021231  0.48413195  0.42718269     0.08600
H89         H  0.56058888  0.48490616  0.46211333     0.07700
N90         N  0.61274079  0.43402454  0.43967568    -0.36200
N91         N  0.61280021  0.42365286  0.44934239    -0.28300
C92         C  0.62199843  0.41336603  0.44506994    -0.03600
C93         C  0.62800699  0.41738820  0.43209076     0.05000
C94         C  0.62186271  0.43054685  0.42904161     0.03100
H95         H  0.62403817  0.40358775  0.45091165     0.08200
H96         H  0.62380763  0.43709930  0.41969657     0.07100
N97         N  0.52231155  0.56476504  0.42426058    -0.27300
N98         N  0.52134014  0.55406379  0.43349488    -0.35200
C99         C  0.50874566  0.55515263  0.44050263     0.01000
C100        C  0.50138338  0.56703997  0.43540868     0.07000
C101        C  0.51036382  0.57282886  0.42510605    -0.06100
H102        H  0.50514800  0.54776232  0.44865282     0.07700
H103        H  0.50839966  0.58228795  0.41873459     0.08900
Cu104      Cu  0.53725591  0.53819608  0.43570793     0.44200
Cu105      Cu  0.54006857  0.56804562  0.41100992     0.42000
Cu106      Cu  0.56864434  0.54183878  0.41251604     0.43900
N107        N  0.55405972  0.52314717  0.43476406    -0.34700
N108        N  0.56518994  0.52437674  0.42607831    -0.29000
C109        C  0.57363029  0.51277213  0.42756504    -0.05100
C110        C  0.56767844  0.50379168  0.43774977     0.07100
C111        C  0.55529157  0.51075311  0.44210464     0.00900
H112        H  0.58344747  0.51103767  0.42169110     0.08600
H113        H  0.54761013  0.50696644  0.44989122     0.07700
N114        N  0.56952141  0.56023616  0.39980827    -0.36200
N115        N  0.55899737  0.56967284  0.39916391    -0.28300
C116        C  0.56262900  0.58009202  0.38988036    -0.03600
C117        C  0.57609495  0.57715309  0.38442134     0.05000
C118        C  0.58014358  0.56447676  0.39099014     0.03100
H119        H  0.55592641  0.58915408  0.38728459     0.08200
H120        H  0.59001410  0.55867175  0.38936373     0.07100
N121        N  0.42377238  0.58351949  0.48249606    -0.27300
N122        N  0.43421337  0.57397355  0.48274908    -0.35200
C123        C  0.43263109  0.56556997  0.49438654     0.01000
C124        C  0.42067187  0.57003077  0.50195056     0.07000
C125        C  0.41533064  0.58144690  0.49405490    -0.06100
H126        H  0.43985790  0.55702253  0.49729829     0.07700
H127        H  0.40604932  0.58786176  0.49659995     0.08900
Cu128      Cu  0.45067237  0.57337059  0.46758273     0.44200
Cu129      Cu  0.42184398  0.59903395  0.46627421     0.42000
Cu130      Cu  0.44991915  0.59969215  0.43873368     0.43900
N131        N  0.46683476  0.57528695  0.45220788    -0.34700
N132        N  0.46680625  0.58491056  0.44179995    -0.29000
C133        C  0.47903301  0.58346766  0.43418893    -0.05100
C134        C  0.48709855  0.57239963  0.44004079     0.07100
C135        C  0.47895289  0.56750196  0.45142495     0.00900
H136        H  0.48187497  0.59001559  0.42507340     0.08600
H137        H  0.48172348  0.55899432  0.45876390     0.07700
N138        N  0.43177112  0.61324593  0.43855382    -0.36200
N139        N  0.42178051  0.61303412  0.44861739    -0.28300
C140        C  0.41168804  0.62284724  0.44539100    -0.03600
C141        C  0.41534378  0.62960840  0.43267357     0.05000
C142        C  0.42817240  0.62321172  0.42867716     0.03100
H143        H  0.40224363  0.62480488  0.45178224     0.08200
H144        H  0.43439911  0.62557963  0.41920793     0.07100
N145        N  0.58933639  0.05941194  0.03291556    -0.27300
N146        N  0.58021077  0.04861458  0.03235786    -0.35200
C147        C  0.57219568  0.04985071  0.02043293     0.01000
C148        C  0.57645081  0.06197909  0.01304647     0.07000
C149        C  0.58737191  0.06774804  0.02127983    -0.06100
H150        H  0.56383661  0.04246769  0.01739371     0.07700
H151        H  0.59331370  0.07742623  0.01908376     0.08900
Cu152      Cu  0.57900281  0.03261337  0.04791122     0.44200
Cu153      Cu  0.60364420  0.06252477  0.04996358     0.42000
Cu154      Cu  0.60356826  0.03493046  0.07779304     0.43900
N155        N  0.58002939  0.01735493  0.06420863    -0.34700
N156        N  0.58919217  0.01793602  0.07497369    -0.29000
C157        C  0.58720549  0.00636799  0.08340886    -0.05100
C158        C  0.57621131  0.99817393  0.07773483     0.07100
C159        C  0.57194053  0.00551312  0.06557936     0.00900
H160        H  0.59319956  0.00417635  0.09305902     0.08600
H161        H  0.56358285  0.00244147  0.05820554     0.07700
N162        N  0.61581656  0.05371096  0.07884015    -0.36200
N163        N  0.61588891  0.06370126  0.06878334    -0.28300
C164        C  0.62440037  0.07454779  0.07306769    -0.03600
C165        C  0.62992845  0.07130315  0.08646908     0.05000
C166        C  0.62424746  0.05798816  0.08973675     0.03100
H167        H  0.62619401  0.08423517  0.06699567     0.08200
H168        H  0.62591251  0.05194253  0.09946668     0.07100
N169        N  0.52492040  0.08156606  0.93876310    -0.27300
N170        N  0.52448790  0.07193543  0.94915542    -0.35200
C171        C  0.51235974  0.06423104  0.94786185     0.01000
C172        C  0.50471935  0.06924935  0.93616418     0.07000
C173        C  0.51303469  0.08025564  0.93068446    -0.06100
H174        H  0.50925622  0.05568103  0.95501808     0.07700
H175        H  0.51063960  0.08682228  0.92145901     0.08900
Cu176      Cu  0.54023088  0.06997650  0.96506364     0.44200
Cu177      Cu  0.54179631  0.09609204  0.93593791     0.42000
Cu178      Cu  0.56862122  0.09630255  0.96400883     0.43900
N179        N  0.55656049  0.07116177  0.98044235    -0.34700
N180        N  0.56668958  0.08103233  0.98018009    -0.29000
C181        C  0.57527382  0.07926376  0.99162785    -0.05100
C182        C  0.57040461  0.06769240  0.99951076     0.07100
C183        C  0.55852631  0.06280888  0.99206576     0.00900
H184        H  0.58442841  0.08590891  0.99400846     0.08600
H185        H  0.55170802  0.05393060  0.99497631     0.07700
N186        N  0.56966692  0.10928943  0.94588141    -0.36200
N187        N  0.56005722  0.10912486  0.93549756    -0.28300
C188        C  0.56434554  0.11814453  0.92505587    -0.03600
C189        C  0.57725220  0.12427241  0.92906247     0.05000
C190        C  0.58023769  0.11841797  0.94234693     0.03100
H191        H  0.55858238  0.11996685  0.91519018     0.08200
H192        H  0.58958072  0.12040652  0.94885758     0.07100
N193        N  0.47041704  0.06190027  0.91850815    -0.27300
N194        N  0.47087621  0.05122487  0.92780968    -0.35200
C195        C  0.48305139  0.05221984  0.93547663     0.01000
C196        C  0.49070398  0.06403502  0.93078202     0.07000
C197        C  0.48234312  0.06988842  0.91999450    -0.06100
H198        H  0.48614980  0.04481538  0.94381442     0.07700
H199        H  0.48470762  0.07933636  0.91374208     0.08900
Cu200      Cu  0.45498593  0.03550487  0.92942795     0.44200
Cu201      Cu  0.45328344  0.06524207  0.90439860     0.42000
Cu202      Cu  0.42497391  0.03849082  0.90490847     0.43900
N203        N  0.43846970  0.02041880  0.92817066    -0.34700
N204        N  0.42772229  0.02134736  0.91901316    -0.29000
C205        C  0.41935606  0.00968462  0.92043201    -0.05100
C206        C  0.42503121  0.00101000  0.93103479     0.07100
C207        C  0.43712130  0.00819581  0.93572084     0.00900
H208        H  0.40985258  0.00765621  0.91416855     0.08600
H209        H  0.44457397  0.00465264  0.94382768     0.07700
N210        N  0.42432413  0.05695029  0.89228190    -0.36200
N211        N  0.43456901  0.06671103  0.89210832    -0.28300
C212        C  0.43059914  0.07747264  0.88333797    -0.03600
C213        C  0.41723647  0.07436705  0.87770833     0.05000
C214        C  0.41363344  0.06124499  0.88360941     0.03100
H215        H  0.43689050  0.08697702  0.88137990     0.08200
H216        H  0.40381409  0.05536990  0.88195937     0.07100
N217        N  0.52315123  0.92511378  0.09595897    -0.27300
N218        N  0.52303777  0.93578413  0.08664096    -0.35200
C219        C  0.51080303  0.93523634  0.07902696     0.01000
C220        C  0.50276202  0.92372890  0.08379951     0.07000
C221        C  0.51094024  0.91758471  0.09455047    -0.06100
H222        H  0.50792652  0.94274363  0.07070070     0.07700
H223        H  0.50825511  0.90824897  0.10084123     0.08900
Cu224      Cu  0.53936922  0.95096437  0.08503794     0.44200
Cu225      Cu  0.54008820  0.92111175  0.11010442     0.42000
Cu226      Cu  0.56853777  0.94767125  0.11042512     0.43900
N227        N  0.55610491  0.96570358  0.08652515    -0.34700
N228        N  0.56656179  0.96476201  0.09601058    -0.29000
C229        C  0.57529346  0.97615146  0.09442868    -0.05100
C230        C  0.57014918  0.98462092  0.08336844     0.07100
C231        C  0.55798426  0.97762144  0.07862473     0.00900
H232        H  0.58475868  0.97806324  0.10078578     0.08600
H233        H  0.55091375  0.98101380  0.07012082     0.07700
N234        N  0.56877389  0.92902805  0.12292305    -0.36200
N235        N  0.55851009  0.91928647  0.12275958    -0.28300
C236        C  0.56220014  0.90845278  0.13158819    -0.03600
C237        C  0.57540469  0.91149733  0.13762280     0.05000
C238        C  0.57919473  0.92464483  0.13187200     0.03100
H239        H  0.55579930  0.89898757  0.13337540     0.08200
H240        H  0.58894423  0.93052247  0.13388040     0.07100
N241        N  0.46823879  0.90693585  0.07609707    -0.27300
N242        N  0.46885324  0.91634015  0.06552060    -0.35200
C243        C  0.48109016  0.92388994  0.06671940     0.01000
C244        C  0.48858225  0.91894769  0.07854829     0.07000
C245        C  0.48007863  0.90820739  0.08420554    -0.06100
H246        H  0.48443028  0.93216075  0.05934419     0.07700
H247        H  0.48236805  0.90170303  0.09350226     0.08900
Cu248      Cu  0.45334547  0.91771960  0.04938270     0.44200
Cu249      Cu  0.45140462  0.89252513  0.07898515     0.42000
Cu250      Cu  0.42472940  0.89124905  0.05093088     0.43900
N251        N  0.43766320  0.91538773  0.03352884    -0.34700
N252        N  0.42752842  0.90551498  0.03389332    -0.29000
C253        C  0.41974270  0.90636897  0.02177051    -0.05100
C254        C  0.42515285  0.91733834  0.01338148     0.07100
C255        C  0.43647524  0.92283230  0.02122178     0.00900
H256        H  0.41079831  0.89949317  0.01925004     0.08600
H257        H  0.44353404  0.93143921  0.01807755     0.07700
N258        N  0.42377874  0.87868060  0.06944928    -0.36200
N259        N  0.43346215  0.87922798  0.07974687    -0.28300
C260        C  0.42957244  0.87022322  0.09033990    -0.03600
C261        C  0.41684017  0.86365567  0.08655412     0.05000
C262        C  0.41351731  0.86927943  0.07322307     0.03100
H263        H  0.43552514  0.86866623  0.10013673     0.08200
H264        H  0.40420220  0.86687480  0.06681284     0.07100
N265        N  0.40896275  0.92343672  0.97808336    -0.27300
N266        N  0.41737462  0.93475774  0.97917601    -0.35200
C267        C  0.42437881  0.93424251  0.99175122     0.01000
C268        C  0.42017133  0.92207570  0.99906845     0.07000
C269        C  0.41036310  0.91547604  0.99007517    -0.06100
H270        H  0.43185521  0.94227618  0.99538509     0.07700
H271        H  0.40469880  0.90559341  0.99208442     0.08900
Cu272      Cu  0.41854032  0.95093310  0.96389670     0.44200
Cu273      Cu  0.39600004  0.91961239  0.96008999     0.42000
Cu274      Cu  0.39482179  0.94851752  0.93351009     0.43900
N275        N  0.41689357  0.96687925  0.94842085    -0.34700
N276        N  0.40791744  0.96629342  0.93750560    -0.29000
C277        C  0.40925506  0.97840313  0.92974369    -0.05100
C278        C  0.41965208  0.98694066  0.93600934     0.07100
C279        C  0.42424094  0.97925297  0.94781561     0.00900
H280        H  0.40329365  0.98070512  0.92009937     0.08600
H281        H  0.43231855  0.98242967  0.95545344     0.07700
N282        N  0.38382962  0.92906666  0.93134131    -0.36200
N283        N  0.38424483  0.91861492  0.94091301    -0.28300
C284        C  0.37621984  0.90761824  0.93611506    -0.03600
C285        C  0.37049244  0.91124661  0.92289253     0.05000
C286        C  0.37557728  0.92493091  0.92024515     0.03100
H287        H  0.37476367  0.89763917  0.94178979     0.08200
H288        H  0.37348947  0.93140511  0.91087911     0.07100
N289        N  0.06545680  0.58164484  0.03966403    -0.27300
N290        N  0.05399389  0.57345331  0.03850293    -0.35200
C291        C  0.05456280  0.56642246  0.02591296     0.01000
C292        C  0.06690657  0.57048278  0.01875216     0.07000
C293        C  0.07352026  0.58015987  0.02780264    -0.06100
H294        H  0.04648608  0.55905322  0.02216209     0.07700
H295        H  0.08351697  0.58566847  0.02594678     0.08900
Cu296      Cu  0.03788561  0.57280352  0.05403817     0.44200
Cu297      Cu  0.06957422  0.59445753  0.05744664     0.42000
Cu298      Cu  0.04137785  0.59705986  0.08441274     0.43900
N299        N  0.02265817  0.57458790  0.07036062    -0.34700
N300        N  0.02362310  0.58364455  0.08120285    -0.29000
C301        C  0.01192555  0.58213652  0.08956749    -0.05100
C302        C  0.00326099  0.57154517  0.08379854     0.07100
C303        C  0.01045540  0.56703576  0.07164362     0.00900
H304        H  0.00999540  0.58811874  0.09928317     0.08600
H305        H  0.00704797  0.55885398  0.06421766     0.07700
N306        N  0.06100992  0.60793587  0.08568114    -0.36200
N307        N  0.07126592  0.60675427  0.07598117    -0.28300
C308        C  0.08249397  0.61484261  0.07998399    -0.03600
C309        C  0.07920945  0.62151401  0.09279611     0.05000
C310        C  0.06549430  0.61687791  0.09607916     0.03100
H311        H  0.09228607  0.61589648  0.07391149     0.08200
H312        H  0.05920982  0.61981686  0.10534430     0.07100
N313        N  0.08588193  0.52248718  0.94243013    -0.27300
N314        N  0.07617068  0.52204477  0.95273851    -0.35200
C315        C  0.06850727  0.50992204  0.95148452     0.01000
C316        C  0.07361992  0.50223760  0.93990939     0.07000
C317        C  0.08465889  0.51052750  0.93442454    -0.06100
H318        H  0.05993241  0.50684613  0.95862241     0.07700
H319        H  0.09126669  0.50808129  0.92524076     0.08900
Cu320      Cu  0.07394102  0.53751175  0.96866038     0.44200
Cu321      Cu  0.10021130  0.53960993  0.93969749     0.42000
Cu322      Cu  0.09857492  0.56702904  0.96741203     0.43900
N323        N  0.07491009  0.55315318  0.98453513    -0.34700
N324        N  0.08424817  0.56376394  0.98426700    -0.29000
C325        C  0.08280152  0.57154462  0.99631678    -0.05100
C326        C  0.07196592  0.56562710  0.00453581     0.07100
C327        C  0.06718045  0.55400074  0.99669355     0.00900
H328        H  0.08918409  0.58083000  0.99890601     0.08600
H329        H  0.05891355  0.54650972  0.99974847     0.07700
N330        N  0.11174162  0.56841768  0.94938680    -0.36200
N331        N  0.11244399  0.55848728  0.93931786    -0.28300
C332        C  0.12175545  0.56284511  0.92916503    -0.03600
C333        C  0.12715367  0.57614353  0.93299365     0.05000
C334        C  0.12054561  0.57929104  0.94588622     0.03100
H335        H  0.12430124  0.55683453  0.91961050     0.08200
H336        H  0.12193244  0.58886345  0.95222503     0.07100
N337        N  0.02383883  0.42671783  0.92170898    -0.27300
N338        N  0.02319620  0.43748780  0.93089066    -0.35200
C339        C  0.01098354  0.43648174  0.93851652     0.01000
C340        C  0.00344935  0.42457065  0.93395152     0.07000
C341        C  0.01193180  0.41867610  0.92324703    -0.06100
H342        H  0.00781053  0.44391885  0.94679291     0.07700
H343        H  0.00970117  0.40910050  0.91716043     0.08900
Cu344      Cu  0.03883549  0.45338881  0.93267506     0.44200
Cu345      Cu  0.04131584  0.42317139  0.90780290     0.42000
Cu346      Cu  0.06921469  0.45039607  0.90917250     0.43900
N347        N  0.05510752  0.46871023  0.93169191    -0.34700
N348        N  0.06611822  0.46775238  0.92285832    -0.29000
C349        C  0.07438795  0.47947019  0.92437239    -0.05100
C350        C  0.06834690  0.48821810  0.93470964     0.07100
C351        C  0.05615184  0.48101401  0.93912395     0.00900
H352        H  0.08409871  0.48145525  0.91840175     0.08600
H353        H  0.04847774  0.48455053  0.94703200     0.07700
N354        N  0.07049193  0.43206869  0.89649731    -0.36200
N355        N  0.06048876  0.42207483  0.89586041    -0.28300
C356        C  0.06497958  0.41168472  0.88683984    -0.03600
C357        C  0.07841496  0.41533686  0.88157110     0.05000
C358        C  0.08148461  0.42833060  0.88796238     0.03100
H359        H  0.05897025  0.40211853  0.88438254     0.08200
H360        H  0.09111457  0.43459025  0.88662757     0.07100
N361        N  0.92814553  0.52097789  0.10181166    -0.27300
N362        N  0.93876920  0.52043987  0.09246138    -0.35200
C363        C  0.93743200  0.50842387  0.08456986     0.01000
C364        C  0.92548304  0.50093347  0.08922107     0.07000
C365        C  0.91991302  0.50922877  0.10020445    -0.06100
H366        H  0.94469357  0.50530954  0.07611211     0.07700
H367        H  0.91040831  0.50700547  0.10641830     0.08900
Cu368      Cu  0.95481966  0.53609806  0.09115807     0.44200
Cu369      Cu  0.92501328  0.53816950  0.11591610     0.42000
Cu370      Cu  0.95183218  0.56646270  0.11553550     0.43900
N371        N  0.97008281  0.55250809  0.09257599    -0.34700
N372        N  0.96920075  0.56335461  0.10163864    -0.29000
C373        C  0.98086386  0.57172174  0.10003480    -0.05100
C374        C  0.98945685  0.56597046  0.08938022     0.07100
C375        C  0.98224034  0.55380766  0.08491518     0.00900
H376        H  0.98285495  0.58138822  0.10606264     0.08600
H377        H  0.98563532  0.54636396  0.07673381     0.07700
N378        N  0.93317120  0.56723074  0.12801513    -0.36200
N379        N  0.92348492  0.55691063  0.12819798    -0.28300
C380        C  0.91288790  0.56062296  0.13727448    -0.03600
C381        C  0.91598274  0.57390728  0.14312028     0.05000
C382        C  0.92893505  0.57775050  0.13696154     0.03100
H383        H  0.90359518  0.55410077  0.13947306     0.08200
H384        H  0.93489099  0.58747021  0.13889270     0.07100
N385        N  0.90772603  0.46678100  0.08117685    -0.27300
N386        N  0.91597109  0.46817468  0.06973809    -0.35200
C387        C  0.92351782  0.48042267  0.07087110     0.01000
C388        C  0.91982058  0.48718142  0.08355929     0.07000
C389        C  0.90974018  0.47821045  0.08977922    -0.06100
H390        H  0.93110460  0.48418087  0.06297803     0.07700
H391        H  0.90440771  0.47978008  0.09993466     0.08900
Cu392      Cu  0.91655092  0.45326491  0.05297291     0.44200
Cu393      Cu  0.89448384  0.44893215  0.08470765     0.42000
Cu394      Cu  0.89452672  0.42139311  0.05686574     0.43900
N395        N  0.91550235  0.43703991  0.03749832    -0.34700
N396        N  0.90730918  0.42555704  0.03872103    -0.29000
C397        C  0.90907915  0.41735259  0.02694160    -0.05100
C398        C  0.91895191  0.42387222  0.01792541     0.07100
C399        C  0.92276519  0.43632628  0.02502886     0.00900
H400        H  0.90377856  0.40722743  0.02518696     0.08600
H401        H  0.93030066  0.44431319  0.02139039     0.07700
N402        N  0.88304093  0.41963161  0.07623160    -0.36200
N403        N  0.88290524  0.42969149  0.08620729    -0.28300
C404        C  0.87454075  0.42531377  0.09715710    -0.03600
C405        C  0.86915712  0.41183166  0.09404906     0.05000
C406        C  0.87481965  0.40860074  0.08067998     0.03100
H407        H  0.87261326  0.43146335  0.10676786     0.08200
H408        H  0.87306569  0.39891920  0.07460482     0.07100
N409        N  0.92746715  0.40621928  0.98373858    -0.27300
N410        N  0.93800047  0.41565988  0.98445210    -0.35200
C411        C  0.93648838  0.42340343  0.99655684     0.01000
C412        C  0.92453898  0.41858229  0.00394834     0.07000
C413        C  0.91912968  0.40765438  0.99547377    -0.06100
H414        H  0.94370878  0.43180457  0.99986177     0.07700
H415        H  0.90974493  0.40125638  0.99764688     0.08900
Cu416      Cu  0.95444170  0.41726645  0.96913005     0.44200
Cu417      Cu  0.92478589  0.39182035  0.96658751     0.42000
Cu418      Cu  0.95286567  0.39185009  0.93970057     0.43900
N419        N  0.97006073  0.41599523  0.95293962    -0.34700
N420        N  0.96956876  0.40655321  0.94239975    -0.29000
C421        C  0.98125483  0.40817740  0.93407382    -0.05100
C422        C  0.98953552  0.41919684  0.93952848     0.07100
C423        C  0.98205550  0.42390850  0.95148754     0.00900
H424        H  0.98355056  0.40179267  0.92470114     0.08600
H425        H  0.98520484  0.43236077  0.95872315     0.07700
N426        N  0.93475249  0.37868614  0.93853071    -0.36200
N427        N  0.92440354  0.37874587  0.94820338    -0.28300
C428        C  0.91414296  0.36946474  0.94403926    -0.03600
C429        C  0.91820391  0.36321877  0.93115812     0.05000
C430        C  0.93135862  0.36934490  0.92806100     0.03100
H431        H  0.90438293  0.36746264  0.94991978     0.08200
H432        H  0.93791340  0.36731328  0.91873865     0.07100
N433        N  0.02789718  0.06881407  0.59399812    -0.27300
N434        N  0.02723888  0.05813848  0.58471678    -0.35200
C435        C  0.01496626  0.05928585  0.57719109     0.01000
C436        C  0.00741550  0.07113324  0.58203283     0.07000
C437        C  0.01596784  0.07686282  0.59272076    -0.06100
H438        H  0.01167841  0.05191621  0.56890584     0.07700
H439        H  0.01376162  0.08632829  0.59899377     0.08900
Cu440      Cu  0.04293980  0.04206721  0.58317507     0.44200
Cu441      Cu  0.04535778  0.07218984  0.60775968     0.42000
Cu442      Cu  0.07316888  0.04480532  0.60764930     0.43900
N443        N  0.05923231  0.02658701  0.58459472    -0.34700
N444        N  0.07006795  0.02738737  0.59367364    -0.29000
C445        C  0.07835325  0.01563766  0.59207558    -0.05100
C446        C  0.07254477  0.00703145  0.58144695     0.07100
C447        C  0.06043507  0.01438015  0.57697720     0.00900
H448        H  0.08797843  0.01355767  0.59813535     0.08600
H449        H  0.05296556  0.01104415  0.56880616     0.07700
N450        N  0.07427034  0.06368079  0.61994248    -0.36200
N451        N  0.06418900  0.07362935  0.61997537    -0.28300
C452        C  0.06823237  0.08435798  0.62877649    -0.03600
C453        C  0.08149381  0.08108220  0.63460226     0.05000
C454        C  0.08494151  0.06787402  0.62871884     0.03100
H455        H  0.06198528  0.09388742  0.63075805     0.08200
H456        H  0.09455768  0.06175103  0.63065948     0.07100
N457        N  0.08890149  0.93211929  0.53024630    -0.27300
N458        N  0.07917899  0.94239443  0.53055270    -0.35200
C459        C  0.07082260  0.94127637  0.51883691     0.01000
C460        C  0.07554295  0.92981986  0.51067135     0.07000
C461        C  0.08703710  0.92429029  0.51826420    -0.06100
H462        H  0.06208779  0.94842867  0.51632976     0.07700
H463        H  0.09355992  0.91520600  0.51530986     0.08900
Cu464      Cu  0.07835172  0.95794832  0.54666732     0.44200
Cu465      Cu  0.10416358  0.92923111  0.54643044     0.42000
Cu466      Cu  0.10543250  0.95602926  0.57489166     0.43900
N467        N  0.08065978  0.97341644  0.56273304    -0.34700
N468        N  0.09062324  0.97302683  0.57279357    -0.29000
C469        C  0.08933359  0.98488615  0.58098965    -0.05100
C470        C  0.07799977  0.99308892  0.57591593     0.07100
C471        C  0.07279816  0.98540672  0.56434783     0.00900
H472        H  0.09611459  0.98734407  0.59002911     0.08600
H473        H  0.06399365  0.98839626  0.55747165     0.07700
N474        N  0.11824538  0.93736178  0.57465077    -0.36200
N475        N  0.11770173  0.92774224  0.56426503    -0.28300
C476        C  0.12678474  0.91695864  0.56735323    -0.03600
C477        C  0.13344107  0.91978222  0.58030711     0.05000
C478        C  0.12774733  0.93285180  0.58459567     0.03100
H479        H  0.12830795  0.90762051  0.56070008     0.08200
H480        H  0.13021666  0.93858239  0.59433509     0.07100
N481        N  0.06693650  0.91292269  0.47631336    -0.27300
N482        N  0.05591200  0.92169719  0.47761802    -0.35200
C483        C  0.05729508  0.92909091  0.48994575     0.01000
C484        C  0.06973041  0.92472108  0.49678105     0.07000
C485        C  0.07553286  0.91444923  0.48779244    -0.06100
H486        H  0.04971465  0.93695888  0.49373975     0.07700
H487        H  0.08531662  0.90851549  0.48945907     0.08900
Cu488      Cu  0.03921932  0.92271616  0.46262648     0.44200
Cu489      Cu  0.06972934  0.89914905  0.45892125     0.42000
Cu490      Cu  0.04115606  0.89787534  0.43258419     0.43900
N491        N  0.02336533  0.92087646  0.44683026    -0.34700
N492        N  0.02394642  0.91160491  0.43614530    -0.29000
C493        C  0.01196895  0.91279950  0.42821589    -0.05100
C494        C  0.00344957  0.92339789  0.43408064     0.07100
C495        C  0.01103964  0.92829747  0.44584737     0.00900
H496        H  0.00970473  0.90650284  0.41877947     0.08600
H497        H  0.00777260  0.93656406  0.45325068     0.07700
N498        N  0.05971809  0.88559290  0.43121677    -0.36200
N499        N  0.07013322  0.88610219  0.44077602    -0.28300
C500        C  0.08054919  0.87697478  0.43680349    -0.03600
C501        C  0.07652489  0.87039375  0.42415178     0.05000
C502        C  0.06325184  0.87612529  0.42093403     0.03100
H503        H  0.09032927  0.87524580  0.44272165     0.08200
H504        H  0.05663220  0.87360894  0.41178947     0.07100
N505        N  0.93215936  0.09024817  0.53202675    -0.27300
N506        N  0.94319097  0.08142400  0.53110285    -0.35200
C507        C  0.94215585  0.07387507  0.51885230     0.01000
C508        C  0.92996994  0.07818951  0.51160896     0.07000
C509        C  0.92394026  0.08863215  0.52026886    -0.06100
H510        H  0.94973296  0.06581763  0.51546828     0.07700
H511        H  0.91410199  0.09439066  0.51832844     0.08900
Cu512      Cu  0.95921191  0.07991238  0.54664453     0.44200
Cu513      Cu  0.92832407  0.10343640  0.54982279     0.42000
Cu514      Cu  0.95460920  0.10138574  0.57870691     0.43900
N515        N  0.97407433  0.08025704  0.56336864    -0.34700
N516        N  0.97262898  0.08824277  0.57497556    -0.29000
C517        C  0.98423711  0.08628474  0.58337149    -0.05100
C518        C  0.99335549  0.07652295  0.57681983     0.07100
C519        C  0.98648745  0.07294453  0.56417550     0.00900
H520        H  0.98588908  0.09150865  0.59356082     0.08600
H521        H  0.99033309  0.06567877  0.55603395     0.07700
N522        N  0.93568928  0.11373055  0.57978364    -0.36200
N523        N  0.92621019  0.11450446  0.56928521    -0.28300
C524        C  0.91540436  0.12320400  0.57335856    -0.03600
C525        C  0.91813522  0.12822787  0.58706739     0.05000
C526        C  0.93110853  0.12196000  0.59075161     0.03100
H527        H  0.90621283  0.12570135  0.56680053     0.08200
H528        H  0.93680826  0.12327463  0.60073019     0.07100
N529        N  0.90985069  0.02790421  0.43686217    -0.27300
N530        N  0.91911587  0.02689337  0.44751354    -0.35200
C531        C  0.92649945  0.01459389  0.44607538     0.01000
C532        C  0.92160213  0.00748428  0.43401593     0.07000
C533        C  0.91102927  0.01624111  0.42847312    -0.06100
H534        H  0.93477464  0.01104645  0.45333503     0.07700
H535        H  0.90475511  0.01436663  0.41893758     0.08900
Cu536      Cu  0.92119278  0.04227584  0.46368782     0.44200
Cu537      Cu  0.89632645  0.04536605  0.43384480     0.42000
Cu538      Cu  0.89848069  0.07368544  0.46020487     0.43900
N539        N  0.92071153  0.05893463  0.47869037    -0.34700
N540        N  0.91220391  0.07019417  0.47756257    -0.29000
C541        C  0.91412894  0.07868216  0.48906854    -0.05100
C542        C  0.92443458  0.07259581  0.49781823     0.07100
C543        C  0.92837534  0.06009203  0.49086473     0.00900
H544        H  0.90852863  0.08864293  0.49086220     0.08600
H545        H  0.93613059  0.05230925  0.49447915     0.07700
N546        N  0.88561236  0.07478673  0.44190266    -0.36200
N547        N  0.88473426  0.06435349  0.43238861    -0.28300
C548        C  0.87556134  0.06824450  0.42197451    -0.03600
C549        C  0.87040335  0.08179349  0.42501901     0.05000
C550        C  0.87702954  0.08560496  0.43773474     0.03100
H551        H  0.87289499  0.06169541  0.41282067     0.08200
H552        H  0.87569014  0.09550769  0.44355823     0.07100
N553        N  0.92830502  0.97327153  0.41609025    -0.27300
N554        N  0.93924087  0.97377520  0.42504338    -0.35200
C555        C  0.93853566  0.98595909  0.43267697     0.01000
C556        C  0.92663245  0.99359011  0.42832580     0.07000
C557        C  0.92041341  0.98524142  0.41775003    -0.06100
H558        H  0.94616235  0.98903183  0.44080645     0.07700
H559        H  0.91072972  0.98757324  0.41187628     0.08900
Cu560      Cu  0.95480385  0.95794763  0.42652771     0.44200
Cu561      Cu  0.92445014  0.95582231  0.40257338     0.42000
Cu562      Cu  0.95108027  0.92699852  0.40380568     0.43900
N563        N  0.96987645  0.94160596  0.42567837    -0.34700
N564        N  0.96879696  0.93040414  0.41711304    -0.29000
C565        C  0.98055447  0.92219111  0.41873150    -0.05100
C566        C  0.98937314  0.92848052  0.42888102     0.07100
C567        C  0.98221272  0.94074617  0.43304828     0.00900
H568        H  0.98250610  0.91233381  0.41300180     0.08600
H569        H  0.98580542  0.94861331  0.44072486     0.07700
N570        N  0.93214663  0.92609971  0.39183520    -0.36200
N571        N  0.92262334  0.93656871  0.39125154    -0.28300
C572        C  0.91180514  0.93254758  0.38260885    -0.03600
C573        C  0.91457297  0.91889116  0.37753636     0.05000
C574        C  0.92756052  0.91516268  0.38363035     0.03100
H575        H  0.90254700  0.93906972  0.38026267     0.08200
H576        H  0.93330044  0.90522825  0.38217364     0.07100
N577        N  0.85322807  0.60233317  0.20413718    -0.27300
N578        N  0.85476447  0.59058747  0.19642673    -0.35200
C579        C  0.84351530  0.58190683  0.19905808     0.01000
C580        C  0.83454931  0.58859748  0.20888535     0.07000
C581        C  0.84109358  0.60150849  0.21178510    -0.06100
H582        H  0.84190508  0.57157298  0.19411977     0.07700
H583        H  0.83720303  0.60981954  0.21883207     0.08900
Cu584      Cu  0.87222218  0.58774548  0.18253299     0.44200
Cu585      Cu  0.86747011  0.61921055  0.20395388     0.42000
Cu586      Cu  0.89861047  0.61751789  0.18156282     0.43900
N587        N  0.89055041  0.58817501  0.16948264    -0.34700
N588        N  0.89997781  0.59875880  0.16910342    -0.29000
C589        C  0.91036820  0.59536567  0.15964423    -0.05100
C590        C  0.90740539  0.58205570  0.15377782     0.07100
C591        C  0.89474695  0.57787342  0.16028238     0.00900
H592        H  0.91947759  0.60208025  0.15726498     0.08600
H593        H  0.88902453  0.56798151  0.15852936     0.07700
N594        N  0.89419441  0.63490524  0.19523038    -0.36200
N595        N  0.88255903  0.63532593  0.20326776    -0.28300
C596        C  0.88234908  0.64755884  0.21081894    -0.03600
C597        C  0.89443640  0.65531941  0.20747193     0.05000
C598        C  0.90177301  0.64698737  0.19757085     0.03100
H599        H  0.87403469  0.65054287  0.21829505     0.08200
H600        H  0.91183928  0.64953705  0.19247219     0.07100
N601        N  0.91472368  0.76858315  0.26707589    -0.27300
N602        N  0.92594463  0.77703232  0.26534881    -0.35200
C603        C  0.92434687  0.78882644  0.27333298     0.08200
C604        C  0.91173963  0.78782131  0.28095602     0.07000
C605        C  0.90583219  0.77482515  0.27664120    -0.06100
H606        H  0.93215428  0.79733886  0.27394426     0.07700
H607        H  0.89599208  0.77008356  0.28044201     0.08900
Cu608      Cu  0.94460412  0.77179419  0.25481375     0.44200
Cu609      Cu  0.91238239  0.74888352  0.25615535     0.42000
Cu610      Cu  0.94461728  0.73947844  0.23625918     0.43900
N611        N  0.96332258  0.76235864  0.24795595    -0.34700
N612        N  0.96324249  0.75025413  0.24073031    -0.29000
C613        C  0.97673524  0.74569480  0.23894797    -0.05100
C614        C  0.98573830  0.75536075  0.24554471     0.07100
C615        C  0.97689837  0.76581912  0.25115103     0.00900
H616        H  0.97967370  0.73564455  0.23403865     0.08600
H617        H  0.98002143  0.77487971  0.25763649     0.07700
N618        N  0.92595390  0.72786721  0.23546325    -0.36200
N619        N  0.91414792  0.73070899  0.24274657    -0.28300
C620        C  0.90465716  0.72007208  0.24022057    -0.03600
C621        C  0.91095359  0.71021072  0.23099662     0.05000
C622        C  0.92438075  0.71557043  0.22826283     0.03100
H623        H  0.89416793  0.71933042  0.24503922     0.08200
H624        H  0.93264459  0.71061500  0.22185286     0.07100
N625        N  0.85914055  0.89228460  0.31051336    -0.27300
N626        N  0.85711392  0.90148877  0.32105222    -0.35200
C627        C  0.84429899  0.90784921  0.31921914     0.01000
C628        C  0.83808148  0.90234187  0.30692657     0.07000
C629        C  0.84779160  0.89253150  0.30171152    -0.06100
H630        H  0.83968677  0.91560094  0.32646447     0.07700
H631        H  0.84640665  0.88558533  0.29256444     0.08900
Cu632      Cu  0.87184798  0.90390422  0.33770078     0.44200
Cu633      Cu  0.87587341  0.87790594  0.30992402     0.42000
Cu634      Cu  0.89602493  0.87337992  0.34237713     0.43900
N635        N  0.88896641  0.90362641  0.35210779    -0.34700
N636        N  0.89773703  0.89262935  0.35377948    -0.29000
C637        C  0.90804513  0.89630014  0.36317259    -0.05100
C638        C  0.90566560  0.91023157  0.36767316     0.07100
C639        C  0.89344796  0.91449681  0.36045054     0.00900
H640        H  0.91679895  0.88941367  0.36628458     0.08600
H641        H  0.88838296  0.92488342  0.36093129     0.07700
N642        N  0.89390103  0.85732178  0.32687317    -0.36200
N643        N  0.88768240  0.85982418  0.31444142    -0.28300
C644        C  0.88859805  0.84811829  0.30621775    -0.03600
C645        C  0.89541129  0.83739223  0.31382395     0.05000
C646        C  0.89861613  0.84366900  0.32697245     0.03100
H647        H  0.88437089  0.84741194  0.29546793     0.08200
H648        H  0.90384869  0.83869860  0.33600942     0.07100
N649        N  0.59992782  0.63386299  0.31659850    -0.27300
N650        N  0.58958369  0.63400450  0.32624555    -0.35200
C651        C  0.58135440  0.64564981  0.32401118     0.01000
C652        C  0.58692096  0.65312940  0.31246251     0.07000
C653        C  0.59866059  0.64535701  0.30806417    -0.06100
H654        H  0.57227837  0.64866077  0.33052471     0.07700
H655        H  0.60599003  0.64807472  0.29952446     0.08900
Cu656      Cu  0.58816991  0.61858584  0.34239049     0.44200
Cu657      Cu  0.61623270  0.61896458  0.31625100     0.42000
Cu658      Cu  0.61984896  0.59570409  0.34683693     0.43900
N659        N  0.58960726  0.60181298  0.35713500    -0.34700
N660        N  0.60093717  0.59346534  0.35873835    -0.29000
C661        C  0.59794782  0.58344918  0.36871860    -0.05100
C662        C  0.58413505  0.58563586  0.37368135     0.07100
C663        C  0.57922926  0.59738298  0.36610021     0.00900
H664        H  0.60525307  0.57511501  0.37202756     0.08600
H665        H  0.56876028  0.60223478  0.36685651     0.07700
N666        N  0.63599855  0.59868702  0.33153784    -0.36200
N667        N  0.63397344  0.60629453  0.31980076    -0.28300
C668        C  0.64548439  0.60509937  0.31129340    -0.03600
C669        C  0.65556268  0.59656341  0.31801442     0.05000
C670        C  0.64914775  0.59279124  0.33094705     0.03100
H671        H  0.64635777  0.60998423  0.30083002     0.08200
H672        H  0.65359954  0.58610171  0.33926681     0.07100
N673        N  0.61155714  0.84525123  0.19039619    -0.27300
N674        N  0.59889461  0.84667479  0.18428106    -0.35200
C675        C  0.59091935  0.83510576  0.18768610     0.01000
C676        C  0.59905154  0.82614039  0.19634409     0.07000
C677        C  0.61203851  0.83293462  0.19774822    -0.06100
H678        H  0.57989351  0.83357773  0.18456812     0.07700
H679        H  0.62101602  0.82945914  0.20415905     0.08900
Cu680      Cu  0.59339274  0.86507111  0.17245549     0.44200
Cu681      Cu  0.62729484  0.86057400  0.19021536     0.42000
Cu682      Cu  0.62043406  0.89411706  0.17365008     0.43900
N683        N  0.59156157  0.88475027  0.16155758    -0.34700
N684        N  0.60130591  0.89503061  0.16203460    -0.29000
C685        C  0.59698046  0.90599822  0.15373197    -0.05100
C686        C  0.58390118  0.90259204  0.14769363     0.07100
C687        C  0.58079507  0.88903114  0.15291729     0.00900
H688        H  0.60299927  0.91574381  0.15214381     0.08600
H689        H  0.57144569  0.88267561  0.15050402     0.07700
N690        N  0.63878532  0.89016013  0.18583549    -0.36200
N691        N  0.64117575  0.87753465  0.19171774    -0.28300
C692        C  0.65323938  0.87803432  0.19945940    -0.03600
C693        C  0.65882415  0.89164180  0.19844207     0.05000
C694        C  0.64941528  0.89911063  0.18971169     0.03100
H695        H  0.65736949  0.86927153  0.20578938     0.08200
H696        H  0.64999882  0.91029902  0.18682348     0.07100
N697        N  0.57443800  0.75826253  0.24134007    -0.27300
N698        N  0.56239436  0.76418259  0.23684122    -0.35200
C699        C  0.56537611  0.77479170  0.22767555     0.01000
C700        C  0.57997062  0.77579686  0.22627267     0.07000
C701        C  0.58549379  0.76521852  0.23513310    -0.06100
H702        H  0.55749062  0.78190315  0.22308494     0.07700
H703        H  0.59665022  0.76315362  0.23735188     0.08900
Cu704      Cu  0.54229050  0.76017640  0.24484215     0.44200
Cu705      Cu  0.57484172  0.74169551  0.25655617     0.42000
Cu706      Cu  0.54132347  0.73911293  0.27609854     0.43900
N707        N  0.52400140  0.75781552  0.25685971    -0.34700
N708        N  0.52383113  0.75021491  0.26875690    -0.29000
C709        C  0.51048315  0.74988813  0.27396933    -0.05100
C710        C  0.50184294  0.75771462  0.26490185     0.07100
C711        C  0.51074586  0.76267635  0.25417980     0.00900
H712        H  0.50722978  0.74384576  0.28329575     0.08600
H713        H  0.50773573  0.76878721  0.24482056     0.07700
N714        N  0.55829105  0.72546998  0.27921022    -0.36200
N715        N  0.57046121  0.72594280  0.27200574    -0.28300
C716        C  0.57847536  0.71458597  0.27590792    -0.03600
C717        C  0.57088672  0.70668438  0.28595943     0.05000
C718        C  0.55820394  0.71395748  0.28779664     0.03100
H719        H  0.58885934  0.71203984  0.27149197     0.08200
H720        H  0.54934058  0.71086912  0.29457322     0.07100
N721        N  0.72626412  0.91565968  0.24437474    -0.27300
N722        N  0.71888738  0.92771402  0.24374925    -0.35200
C723        C  0.70752478  0.92606266  0.23521923     0.01000
C724        C  0.70752219  0.91228978  0.23014677     0.07000
C725        C  0.71951525  0.90586036  0.23615688    -0.06100
H726        H  0.69943937  0.93413709  0.23340944     0.07700
H727        H  0.72274386  0.89480480  0.23507840     0.08900
Cu728      Cu  0.72298103  0.94580094  0.25526524     0.44200
Cu729      Cu  0.74462611  0.91364300  0.25733678     0.42000
Cu730      Cu  0.74975918  0.94510015  0.28099336     0.43900
N731        N  0.72822081  0.96355103  0.26682444    -0.34700
N732        N  0.73835938  0.96342632  0.27660273    -0.29000
C733        C  0.74093589  0.97691500  0.28080876    -0.05100
C734        C  0.73191978  0.98586578  0.27321385     0.07100
C735        C  0.72393913  0.97703153  0.26452298     0.00900
H736        H  0.74943650  0.98002583  0.28800537     0.08600
H737        H  0.71640614  0.98020475  0.25634175     0.07700
N738        N  0.76290114  0.92741895  0.28053068    -0.36200
N739        N  0.76170848  0.91627373  0.27185917    -0.28300
C740        C  0.77328294  0.90781717  0.27376288    -0.03600
C741        C  0.78193382  0.91399975  0.28412584     0.05000
C742        C  0.77501941  0.92634279  0.28810843     0.03100
H743        H  0.77542828  0.89813303  0.26781450     0.08200
H744        H  0.77882631  0.93431835  0.29556777     0.07100
N745        N  0.75881389  0.57029386  0.24428419    -0.27300
N746        N  0.76000631  0.55904420  0.23577476    -0.35200
C747        C  0.77219863  0.55991107  0.22827424     0.01000
C748        C  0.77915903  0.57235339  0.23196570     0.07000
C749        C  0.77038700  0.57872152  0.24220393    -0.06100
H750        H  0.77583298  0.55190783  0.22074768     0.07700
H751        H  0.77232570  0.58868103  0.24775325     0.08900
Cu752      Cu  0.74584827  0.54224362  0.23445955     0.44200
Cu753      Cu  0.74141561  0.57303773  0.25848937     0.42000
Cu754      Cu  0.71528660  0.54365088  0.25569983     0.43900
N755        N  0.73234396  0.52498050  0.23635637    -0.34700
N756        N  0.72093388  0.52538843  0.24463497    -0.29000
C757        C  0.71553012  0.51212537  0.24582729    -0.05100
C758        C  0.72398324  0.50295746  0.23784227     0.07100
C759        C  0.73449809  0.51149172  0.23190212     0.00900
H760        H  0.70673440  0.50923565  0.25277346     0.08600
H761        H  0.74372177  0.50798852  0.22585811     0.07700
N762        N  0.71269514  0.56152316  0.26842610    -0.36200
N763        N  0.72218455  0.57183658  0.27033201    -0.28300
C764        C  0.71707823  0.58083841  0.28045370    -0.03600
C765        C  0.70369676  0.57598873  0.28493760     0.05000
C766        C  0.70135783  0.56382191  0.27689476     0.03100
H767        H  0.72274768  0.59013133  0.28433440     0.08200
H768        H  0.69204432  0.55697481  0.27724495     0.07100
N769        N  0.81134127  0.11415483  0.36237241    -0.27300
N770        N  0.81721119  0.10150121  0.36473814    -0.35200
C771        C  0.81238326  0.09226641  0.35475677     0.01000
C772        C  0.80313528  0.09956451  0.34573998     0.07000
C773        C  0.80272387  0.11336729  0.35090005    -0.06100
H774        H  0.81523523  0.08106987  0.35420101     0.07700
H775        H  0.79637396  0.12212797  0.34681011     0.08900
Cu776      Cu  0.83121709  0.09771401  0.38183592     0.44200
Cu777      Cu  0.81431659  0.13178187  0.37533448     0.42000
Cu778      Cu  0.83530281  0.12744205  0.40725723     0.43900
N779        N  0.84458980  0.09718024  0.39983852    -0.34700
N780        N  0.84595788  0.10787730  0.40901915    -0.29000
C781        C  0.85528197  0.10404635  0.41932207    -0.05100
C782        C  0.86007019  0.09031118  0.41653770     0.07100
C783        C  0.85306410  0.08630820  0.40409370     0.00900
H784        H  0.85837893  0.11080892  0.42817849     0.08600
H785        H  0.85403144  0.07621198  0.39853649     0.07700
N786        N  0.82366479  0.14595298  0.40268010    -0.36200
N787        N  0.81620872  0.14746826  0.39076306    -0.28300
C788        C  0.80923370  0.16002024  0.39107875    -0.03600
C789        C  0.81239578  0.16679277  0.40381275     0.05000
C790        C  0.82159737  0.15759797  0.41093700     0.03100
H791        H  0.80188358  0.16366188  0.38292224     0.08200
H792        H  0.82596265  0.15899875  0.42155896     0.07100
N793        N  0.67965975  0.10711010  0.15501658    -0.27300
N794        N  0.67359238  0.09452507  0.15289140    -0.35200
C795        C  0.67678002  0.08594988  0.16409037     0.01000
C796        C  0.68529767  0.09357495  0.17358038     0.07000
C797        C  0.68685388  0.10691753  0.16745298    -0.06100
H798        H  0.67353462  0.07488861  0.16505623     0.07700
H799        H  0.69312149  0.11573178  0.17154364     0.08900
Cu800      Cu  0.66221614  0.08994147  0.13406102     0.44200
Cu801      Cu  0.67921883  0.12362412  0.14035597     0.42000
Cu802      Cu  0.66408875  0.11762403  0.10553188     0.43900
N803        N  0.65218772  0.08832175  0.11399182    -0.34700
N804        N  0.65284472  0.09815878  0.10378109    -0.29000
C805        C  0.64512448  0.09360690  0.09245239    -0.05100
C806        C  0.63933661  0.08030269  0.09561000     0.07100
C807        C  0.64407098  0.07733425  0.10935847     0.00900
H808        H  0.64377516  0.09958663  0.08263349     0.08600
H809        H  0.64171780  0.06787986  0.11560344     0.07700
N810        N  0.67579346  0.13613863  0.11082395    -0.36200
N811        N  0.68095241  0.13818381  0.12383202    -0.28300
C812        C  0.68829101  0.15051955  0.12419394    -0.03600
C813        C  0.68787759  0.15667564  0.11077103     0.05000
C814        C  0.67980636  0.14729049  0.10251303     0.03100
H815        H  0.69387728  0.15453976  0.13348906     0.08200
H816        H  0.67735267  0.14833521  0.09125098     0.07100
N817        N  0.68460716  0.35509322  0.39507141    -0.27300
N818        N  0.67886252  0.35637217  0.40792932    -0.35200
C819        C  0.68320280  0.34517647  0.41597195     0.01000
C820        C  0.69209759  0.33660956  0.40767505     0.07000
C821        C  0.69266169  0.34323396  0.39451120    -0.06100
H822        H  0.68038620  0.34354902  0.42708312     0.07700
H823        H  0.69878478  0.33987523  0.38527871     0.08900
Cu824      Cu  0.66592420  0.37396529  0.41335796     0.44200
Cu825      Cu  0.68258160  0.37005511  0.37916720     0.42000
Cu826      Cu  0.66384468  0.40264560  0.38574487     0.43900
N827        N  0.65349474  0.39266362  0.41518721    -0.34700
N828        N  0.65280690  0.40285251  0.40533067    -0.29000
C829        C  0.64377240  0.41313308  0.40988767    -0.05100
C830        C  0.63845298  0.40932422  0.42320724     0.07100
C831        C  0.64487111  0.39627734  0.42620889     0.00900
H832        H  0.64117579  0.42266241  0.40386173     0.08600
H833        H  0.64332895  0.38982698  0.43569876     0.07700
N834        N  0.67588664  0.39902960  0.36713648    -0.36200
N835        N  0.68258438  0.38677940  0.36498523    -0.28300
C836        C  0.68963156  0.38723803  0.35249861    -0.03600
C837        C  0.68726355  0.40039186  0.34628908     0.05000
C838        C  0.67851515  0.40768707  0.35585869     0.03100
H839        H  0.69610977  0.37862745  0.34828935     0.08200
H840        H  0.67439497  0.41843493  0.35469381     0.07100
N841        N  0.81943345  0.37569349  0.16240020    -0.27300
N842        N  0.82136198  0.38906789  0.15824659    -0.35200
C843        C  0.81421084  0.39769710  0.16736441     0.01000
C844        C  0.80752303  0.38928351  0.17769829     0.07000
C845        C  0.81126179  0.37542310  0.17422193    -0.06100
H846        H  0.81344716  0.40918760  0.16625089     0.07700
H847        H  0.80768517  0.36574565  0.17946084     0.08900
Cu848      Cu  0.83300973  0.39423068  0.13963082     0.44200
Cu849      Cu  0.82479631  0.35819237  0.15016792     0.42000
Cu850      Cu  0.83712073  0.36434818  0.11434228     0.43900
N851        N  0.84525352  0.39533122  0.12069852    -0.34700
N852        N  0.84666123  0.38460217  0.11153998    -0.29000
C853        C  0.85524669  0.38883068  0.10069470    -0.05100
C854        C  0.85954514  0.40284354  0.10309209     0.07100
C855        C  0.85298137  0.40656390  0.11590151     0.00900
H856        H  0.85826608  0.38212690  0.09176043     0.08600
H857        H  0.85378517  0.41672299  0.12136647     0.07700
N858        N  0.82681339  0.34534750  0.12078949    -0.36200
N859        N  0.82289728  0.34312825  0.13420700    -0.28300
C860        C  0.81543831  0.33087609  0.13510385    -0.03600
C861        C  0.81451973  0.32495896  0.12160869     0.05000
C862        C  0.82191217  0.33438049  0.11276470     0.03100
H863        H  0.81026379  0.32703353  0.14472256     0.08200
H864        H  0.82294024  0.33369619  0.10125581     0.07100
N865        N  0.75117067  0.41574285  0.23634736    -0.27300
N866        N  0.75213999  0.42703842  0.22784248    -0.35200
C867        C  0.76162343  0.42435468  0.21740189     0.01000
C868        C  0.76697455  0.41075198  0.21930578     0.07000
C869        C  0.76010503  0.40551785  0.23139957    -0.06100
H870        H  0.76451475  0.43184309  0.20905512     0.07700
H871        H  0.76161782  0.39514744  0.23631076     0.08900
Cu872      Cu  0.74127557  0.44614174  0.23046127     0.44200
Cu873      Cu  0.73795293  0.41517429  0.25451734     0.42000
Cu874      Cu  0.71710719  0.44794007  0.25925775     0.43900
N875        N  0.73040513  0.46471502  0.23558992    -0.34700
N876        N  0.72107931  0.46521593  0.24617472    -0.29000
C877        C  0.71667581  0.47876601  0.24797260    -0.05100
C878        C  0.72370052  0.48725032  0.23810520     0.07100
C879        C  0.73231241  0.47799507  0.23039063     0.00900
H880        H  0.70974974  0.48230495  0.25654042     0.08600
H881        H  0.73999625  0.48080044  0.22220104     0.07700
N882        N  0.71655098  0.43084069  0.27315978    -0.36200
N883        N  0.72402844  0.41890519  0.27175013    -0.28300
C884        C  0.72135687  0.41047995  0.28318074    -0.03600
C885        C  0.71185129  0.41757365  0.29211648     0.05000
C886        C  0.70905021  0.43038593  0.28539676     0.03100
H887        H  0.72613470  0.40009828  0.28498035     0.08200
H888        H  0.70218007  0.43887678  0.28921901     0.07100
N889        N  0.73223389  0.22830961  0.09563193    -0.27300
N890        N  0.72556250  0.22731330  0.08318696    -0.35200
C891        C  0.71641119  0.21626500  0.08348889     0.01000
C892        C  0.71712857  0.20980352  0.09673772     0.07000
C893        C  0.72730746  0.21773333  0.10422513    -0.06100
H894        H  0.71020043  0.21270835  0.07439882     0.07700
H895        H  0.73114976  0.21566366  0.11494454     0.08900
Cu896      Cu  0.73046168  0.23889360  0.06504830     0.44200
Cu897      Cu  0.74857339  0.24359497  0.09934675     0.42000
Cu898      Cu  0.76335465  0.25687926  0.06543403     0.43900
N899        N  0.74038806  0.24556891  0.04650645    -0.34700
N900        N  0.75321120  0.25143570  0.04656706    -0.29000
C901        C  0.75770097  0.25309212  0.03298678    -0.05100
C902        C  0.74707725  0.24809995  0.02399292     0.07100
C903        C  0.73623713  0.24345249  0.03291186     0.00900
H904        H  0.76790302  0.25758966  0.02991220     0.08600
H905        H  0.72632563  0.23839085  0.02978723     0.07700
N906        N  0.76970394  0.26406013  0.08536243    -0.36200
N907        N  0.76440082  0.25977250  0.09779564    -0.28300
C908        C  0.77046646  0.26773471  0.10826102    -0.03600
C909        C  0.78000266  0.27732655  0.10200401     0.05000
C910        C  0.77915198  0.27464004  0.08753563     0.03100
H911        H  0.76798810  0.26678778  0.11953159     0.08200
H912        H  0.78473308  0.28028454  0.07910074     0.07100
N913        N  0.75589512  0.07386949  0.27953290    -0.27300
N914        N  0.75921046  0.06135793  0.28527162    -0.35200
C915        C  0.76774526  0.06329159  0.29660738     0.01000
C916        C  0.76997238  0.07771742  0.29835680     0.07000
C917        C  0.76237618  0.08420178  0.28730701    -0.06100
H918        H  0.77161329  0.05478631  0.30343907     0.07700
H919        H  0.76127942  0.09555638  0.28537750     0.08900
Cu920      Cu  0.75104699  0.04192859  0.27934166     0.44200
Cu921      Cu  0.74183794  0.07572522  0.26191007     0.42000
Cu922      Cu  0.72340780  0.04184980  0.25420437     0.43900
N923        N  0.74003875  0.02368574  0.27435288    -0.34700
N924        N  0.72949986  0.02365002  0.26499972    -0.29000
C925        C  0.72462310  0.01024091  0.26350694    -0.05100
C926        C  0.73251462  0.00147810  0.27243714     0.07100
C927        C  0.74218429  0.01034034  0.27918561     0.00900
H928        H  0.71631370  0.00707229  0.25611455     0.08600
H929        H  0.75046390  0.00729349  0.28666105     0.07700
N930        N  0.72022387  0.06051019  0.24292876    -0.36200
N931        N  0.72689894  0.07278985  0.24518243    -0.28300
C932        C  0.72264579  0.08215556  0.23500207    -0.03600
C933        C  0.71283585  0.07536805  0.22611271     0.05000
C934        C  0.71164249  0.06170976  0.23149078     0.03100
H935        H  0.72655621  0.09299236  0.23397889     0.08200
H936        H  0.70530172  0.05308189  0.22712736     0.07100
N937        N  0.73847972  0.26789713  0.42749978    -0.27300
N938        N  0.73253070  0.27070378  0.44002904    -0.35200
C939        C  0.72313138  0.28143340  0.43861868     0.01000
C940        C  0.72304903  0.28574951  0.42453352     0.07000
C941        C  0.73293726  0.27697757  0.41770867    -0.06100
H942        H  0.71728824  0.28623051  0.44738360     0.07700
H943        H  0.73617164  0.27748459  0.40660461     0.08900
Cu944      Cu  0.73857756  0.26173998  0.45914378     0.44200
Cu945      Cu  0.75459298  0.25238017  0.42518710     0.42000
Cu946      Cu  0.77049338  0.24163802  0.45966454     0.43900
N947        N  0.74792659  0.25495611  0.47781731    -0.34700
N948        N  0.76002505  0.24771154  0.47814122    -0.29000
C949        C  0.76331511  0.24471733  0.49182288    -0.05100
C950        C  0.75273649  0.25044821  0.50044280     0.07100
C951        C  0.74317842  0.25688891  0.49122333     0.00900
H952        H  0.77254006  0.23860906  0.49518811     0.08600
H953        H  0.73339043  0.26239708  0.49399426     0.07700
N954        N  0.77655802  0.23352088  0.44003465    -0.36200
N955        N  0.77060844  0.23676477  0.42758869    -0.28300
C956        C  0.77588781  0.22782002  0.41755476    -0.03600
C957        C  0.78564924  0.21871591  0.42405128     0.05000
C958        C  0.78575177  0.22264096  0.43824939     0.03100
H959        H  0.77238851  0.22749449  0.40652925     0.08200
H960        H  0.79137499  0.21732683  0.44685782     0.07100
N961        N  0.60300593  0.19131499  0.87458564    -0.27300
N962        N  0.59755957  0.17877164  0.87107640    -0.35200
C963        C  0.59289583  0.17941773  0.85745223     0.01000
C964        C  0.59521535  0.19315928  0.85221894     0.07000
C965        C  0.60157914  0.20035387  0.86350323    -0.06100
H966        H  0.58817736  0.17050571  0.85180774     0.07700
H967        H  0.60506884  0.21138062  0.86363591     0.08900
Cu968      Cu  0.59588885  0.16193993  0.88566245     0.44200
Cu969      Cu  0.61438570  0.19495239  0.89322441     0.42000
Cu970      Cu  0.62062680  0.16402705  0.91532069     0.43900
N971        N  0.59418460  0.14919434  0.90394642    -0.34700
N972        N  0.60324278  0.14992512  0.91479007    -0.29000
C973        C  0.59871849  0.14107917  0.92525720    -0.05100
C974        C  0.58618382  0.13450006  0.92084641     0.07100
C975        C  0.58365900  0.13991140  0.90726714     0.00900
H976        H  0.60397973  0.13980824  0.93548306     0.08600
H977        H  0.57466484  0.13751444  0.90041218     0.07700
N978        N  0.63460451  0.18148002  0.91427463    -0.36200
N979        N  0.63144383  0.19331660  0.90722943    -0.28300
C980        C  0.64216640  0.20275885  0.90875016    -0.03600
C981        C  0.65289945  0.19652895  0.91685409     0.05000
C982        C  0.64766433  0.18298876  0.92016568     0.03100
H983        H  0.64230465  0.21325403  0.90388817     0.08200
H984        H  0.65308095  0.17470724  0.92615660     0.07100
N985        N  0.86021790  0.29883981  0.90216873    -0.27300
N986        N  0.85816464  0.31041315  0.90998509    -0.35200
C987        C  0.84519748  0.30944459  0.91626879     0.01000
C988        C  0.83895500  0.29638705  0.91259026     0.07000
C989        C  0.84900560  0.29000962  0.90372619    -0.06100
H990        H  0.84069022  0.31769092  0.92299510     0.07700
H991        H  0.84826753  0.27962747  0.89870311     0.08900
Cu992      Cu  0.87418516  0.32597647  0.91251816     0.44200
Cu993      Cu  0.87714373  0.29631451  0.88809893     0.42000
Cu994      Cu  0.90467616  0.32304360  0.88757913     0.43900
N995        N  0.89319089  0.33786404  0.91442880    -0.34700
N996        N  0.90414437  0.33686719  0.90547264    -0.29000
C997        C  0.91461751  0.34572581  0.91000243    -0.05100
C998        C  0.91015303  0.35258413  0.92241974     0.07100
C999        C  0.89651271  0.34728187  0.92486716     0.00900
H1000       H  0.92482532  0.34698559  0.90470806     0.08600
H1001       H  0.88950170  0.35003952  0.93365428     0.07700
N1002       N  0.90220790  0.30759625  0.87125963    -0.36200
N1003       N  0.89202534  0.29780699  0.87171680    -0.28300
C1004       C  0.89249627  0.28985049  0.85972571    -0.03600
C1005       C  0.90361591  0.29464830  0.85119190     0.05000
C1006       C  0.90955083  0.30594659  0.85890029     0.03100
H1007       H  0.88503465  0.28137758  0.85723673     0.08200
H1008       H  0.91845197  0.31258092  0.85565161     0.07100
N1009       N  0.76789811  0.25365618  0.93565724    -0.27300
N1010       N  0.77524974  0.25268836  0.94768960    -0.35200
C1011       C  0.78792866  0.25917989  0.94603225     0.01000
C1012       C  0.78856598  0.26526934  0.93252915     0.07000
C1013       C  0.77559754  0.26144887  0.92622303    -0.06100
H1014       H  0.79585393  0.25998252  0.95440491     0.07700
H1015       H  0.77176605  0.26456235  0.91576160     0.08900
Cu1016     Cu  0.76670209  0.24663817  0.96720276     0.44200
Cu1017     Cu  0.74751939  0.24444695  0.93323465     0.42000
Cu1018     Cu  0.72879248  0.24419734  0.96710954     0.43900
N1019       N  0.75467344  0.24662892  0.98581986    -0.34700
N1020       N  0.74058343  0.24577231  0.98572721    -0.29000
C1021       C  0.73574409  0.24600967  0.99926836    -0.05100
C1022       C  0.74735353  0.24737659  0.00829684     0.07100
C1023       C  0.75919625  0.24779352  0.99943411     0.00900
H1024       H  0.72459647  0.24538470  0.00228769     0.08600
H1025       H  0.77026570  0.24875950  0.00262671     0.07700
N1026       N  0.71984257  0.23738502  0.94812288    -0.36200
N1027       N  0.72697105  0.23574844  0.93603227    -0.28300
C1028       C  0.71881190  0.22800506  0.92696112    -0.03600
C1029       C  0.70578698  0.22493832  0.93360834     0.05000
C1030       C  0.70690035  0.23138385  0.94689196     0.03100
H1031       H  0.72233019  0.22448880  0.91651891     0.08200
H1032       H  0.69904581  0.23124911  0.95538481     0.07100
N1033       N  0.63649233  0.30445900  0.62413476    -0.27300
N1034       N  0.63491949  0.31095401  0.61165182    -0.35200
C1035       C  0.64593749  0.30717560  0.60310078     0.01000
C1036       C  0.65481699  0.29798025  0.61066977     0.07000
C1037       C  0.64846317  0.29649397  0.62391645    -0.06100
H1038       H  0.64729120  0.31067565  0.59214839     0.07700
H1039       H  0.65209761  0.28983821  0.63265691     0.08900
Cu1040     Cu  0.61746390  0.32443087  0.60719855     0.44200
Cu1041     Cu  0.62201174  0.30597090  0.64079548     0.42000
Cu1042     Cu  0.59101078  0.32809713  0.63638916     0.43900
N1043       N  0.59912092  0.33742860  0.60618487    -0.34700
N1044       N  0.58970223  0.33869415  0.61670928    -0.29000
C1045       C  0.57931371  0.34780780  0.61262302    -0.05100
C1046       C  0.58225213  0.35257996  0.59889979     0.07100
C1047       C  0.59490262  0.34577192  0.59516606     0.00900
H1048       H  0.57027847  0.35077406  0.61921377     0.08600
H1049       H  0.60063627  0.34680981  0.58516216     0.07700
N1050       N  0.59469688  0.31582196  0.65473229    -0.36200
N1051       N  0.60619225  0.30772351  0.65615378    -0.28300
C1052       C  0.60548673  0.30059573  0.66862056    -0.03600
C1053       C  0.59294226  0.30433547  0.67545852     0.05000
C1054       C  0.58633518  0.31404797  0.66637626     0.03100
H1055       H  0.61338463  0.29298840  0.67229989     0.08200
H1056       H  0.57606050  0.31912212  0.66793998     0.07100
N1057       N  0.85156918  0.17980946  0.62537925    -0.27300
N1058       N  0.85336569  0.17480844  0.61225086    -0.35200
C1059       C  0.84189830  0.17870833  0.60433418     0.01000
C1060       C  0.83257152  0.18649382  0.61294658     0.07000
C1061       C  0.83911447  0.18696238  0.62616587    -0.06100
H1062       H  0.84063666  0.17647158  0.59305107     0.07700
H1063       H  0.83535086  0.19258343  0.63555599     0.08900
Cu1064     Cu  0.87203357  0.16352369  0.60603096     0.44200
Cu1065     Cu  0.86671092  0.17844872  0.64144479     0.42000
Cu1066     Cu  0.90084770  0.16349242  0.63308147     0.43900
N1067       N  0.89159623  0.15224105  0.60380044    -0.34700
N1068       N  0.90174288  0.15213026  0.61370018    -0.29000
C1069       C  0.91254908  0.14365398  0.60925996    -0.05100
C1070       C  0.90923524  0.13812977  0.59590087     0.07100
C1071       C  0.89584938  0.14385034  0.59278709     0.00900
H1072       H  0.92217518  0.14166454  0.61534731     0.08600
H1073       H  0.88959744  0.14193683  0.58324761     0.07700
N1074       N  0.89707245  0.17567276  0.65158813    -0.36200
N1075       N  0.88421338  0.18057733  0.65478167    -0.28300
C1076       C  0.88498221  0.18866475  0.66664161    -0.03600
C1077       C  0.89905228  0.18912526  0.67116256     0.05000
C1078       C  0.90643482  0.18068136  0.66137716     0.03100
H1079       H  0.87606400  0.19446222  0.67118975     0.08200
H1080       H  0.91785324  0.17889347  0.66102000     0.07100
N1081       N  0.76216126  0.22916900  0.58934685    -0.27300
N1082       N  0.76888611  0.22714912  0.57703513    -0.35200
C1083       C  0.78083215  0.21951663  0.57922118     0.01000
C1084       C  0.78188284  0.21642445  0.59357641     0.07000
C1085       C  0.76988164  0.22271032  0.59977879    -0.06100
H1086       H  0.78841347  0.21668306  0.57094480     0.07700
H1087       H  0.76717468  0.22285075  0.61103223     0.08900
Cu1088     Cu  0.76260119  0.23500936  0.55743973     0.44200
Cu1089     Cu  0.74305483  0.24135838  0.59084955     0.42000
Cu1090     Cu  0.73127103  0.25560516  0.55607193     0.43900
N1091       N  0.75500473  0.24347006  0.53859327    -0.34700
N1092       N  0.74318447  0.25114028  0.53807627    -0.29000
C1093       C  0.74064527  0.25496085  0.52446199    -0.05100
C1094       C  0.75144565  0.24938926  0.51603660     0.07100
C1095       C  0.76039082  0.24217290  0.52532517     0.00900
H1096       H  0.73154435  0.26118552  0.52097694     0.08600
H1097       H  0.76996396  0.23625392  0.52265213     0.07700
N1098       N  0.72084884  0.25938913  0.57513643    -0.36200
N1099       N  0.72478207  0.25450618  0.58785107    -0.28300
C1100       C  0.71529009  0.25936552  0.59765359    -0.03600
C1101       C  0.70501844  0.26756611  0.59065536     0.05000
C1102       C  0.70894816  0.26730651  0.57645601     0.03100
H1103       H  0.71573386  0.25702543  0.60898191     0.08200
H1104       H  0.70350489  0.27249084  0.56765516     0.07100
N1105       N  0.92520238  0.26263161  0.77432318    -0.27300
N1106       N  0.93676955  0.27028447  0.77719760    -0.35200
C1107       C  0.93498946  0.27712094  0.78973376     0.01000
C1108       C  0.92170783  0.27371144  0.79521362     0.07000
C1109       C  0.91577149  0.26445578  0.78517321    -0.06100
H1110       H  0.94294986  0.28389124  0.79468017     0.07700
H1111       H  0.90540060  0.25938076  0.78577392     0.08900
Cu1112     Cu  0.95531308  0.27063596  0.76496269     0.44200
Cu1113     Cu  0.92311237  0.24987434  0.75564354     0.42000
Cu1114     Cu  0.95558509  0.24825159  0.73435928     0.43900
N1115       N  0.97369167  0.26662854  0.75318239    -0.34700
N1116       N  0.97370830  0.25803004  0.74198629    -0.29000
C1117       C  0.98722622  0.25572063  0.73775479    -0.05100
C1118       C  0.99619047  0.26326594  0.74671774     0.07100
C1119       C  0.98727197  0.27015116  0.75633718     0.00900
H1120       H  0.99030301  0.24845285  0.72929556     0.08600
H1121       H  0.99045094  0.27636288  0.76556455     0.07700
N1122       N  0.93697363  0.23805107  0.72867505    -0.36200
N1123       N  0.92494288  0.23839014  0.73613344    -0.28300
C1124       C  0.91512105  0.23041944  0.72910904    -0.03600
C1125       C  0.92143359  0.22486253  0.71681216     0.05000
C1126       C  0.93523043  0.22996177  0.71693862     0.03100
H1127       H  0.90424163  0.22875862  0.73266140     0.08200
H1128       H  0.94344609  0.22795326  0.70903775     0.07100
N1129       N  0.57224409  0.23888433  0.78374499    -0.27300
N1130       N  0.56086816  0.23919751  0.79212664    -0.35200
C1131       C  0.56305484  0.23092569  0.80359796     0.01000
C1132       C  0.57633177  0.22462281  0.80246512     0.07000
C1133       C  0.58195303  0.22996462  0.78970045    -0.06100
H1134       H  0.55537223  0.22948345  0.81213457     0.07700
H1135       H  0.59224494  0.22748935  0.78504472     0.08900
Cu1136     Cu  0.54201079  0.24942164  0.78774076     0.44200
Cu1137     Cu  0.57346350  0.25137502  0.76501839     0.42000
Cu1138     Cu  0.54022900  0.27204595  0.75817866     0.43900
N1139       N  0.52312942  0.25840026  0.78126357    -0.34700
N1140       N  0.52238457  0.26714959  0.77022223    -0.29000
C1141       C  0.50865747  0.27078775  0.76806997    -0.05100
C1142       C  0.50044258  0.26384975  0.77825954     0.07100
C1143       C  0.50995077  0.25607293  0.78643468     0.00900
H1144       H  0.50491072  0.27747708  0.75939876     0.08600
H1145       H  0.50747810  0.24895174  0.79522525     0.07700
N1146       N  0.55880436  0.27377110  0.74634013    -0.36200
N1147       N  0.57066457  0.26627126  0.74831386    -0.28300
C1148       C  0.58000325  0.26974544  0.73784697    -0.03600
C1149       C  0.57367736  0.27990275  0.72904215     0.05000
C1150       C  0.56029286  0.28214204  0.73475624     0.03100
H1151       H  0.59048907  0.26503654  0.73655850     0.08200
H1152       H  0.55201165  0.28901578  0.73050607     0.07100
N1153       N  0.12003974  0.35088174  0.83094833    -0.27300
N1154       N  0.10664562  0.35278043  0.83506903    -0.35200
C1155       C  0.09871594  0.34185970  0.82998292     0.01000
C1156       C  0.10761786  0.33274512  0.82237307     0.07000
C1157       C  0.12101556  0.33882959  0.82317729    -0.06100
H1158       H  0.08725908  0.34091637  0.83122287     0.07700
H1159       H  0.13063607  0.33514608  0.81791209     0.08900
Cu1160     Cu  0.09998625  0.37093701  0.84644905     0.44200
Cu1161     Cu  0.13606477  0.36570811  0.83401155     0.42000
Cu1162     Cu  0.12649798  0.40014314  0.84792476     0.43900
N1163       N  0.09685254  0.39014759  0.85762604    -0.34700
N1164       N  0.10637378  0.40062858  0.85815291    -0.29000
C1165       C  0.10117911  0.41114485  0.86656504    -0.05100
C1166       C  0.08778360  0.40717307  0.87160801     0.07100
C1167       C  0.08541168  0.39379195  0.86567214     0.00900
H1168       H  0.10684867  0.42092027  0.86900050     0.08600
H1169       H  0.07613203  0.38707783  0.86726567     0.07700
N1170       N  0.14619496  0.39599994  0.83771499    -0.36200
N1171       N  0.14962845  0.38307197  0.83312192    -0.28300
C1172       C  0.16246136  0.38348910  0.82665788    -0.03600
C1173       C  0.16749244  0.39733729  0.82715431     0.05000
C1174       C  0.15692096  0.40504882  0.83422509     0.03100
H1175       H  0.16753225  0.37445597  0.82151031     0.08200
H1176       H  0.15689012  0.41641914  0.83633729     0.07100
N1177       N  0.11524342  0.14316956  0.69425018    -0.27300
N1178       N  0.10301953  0.14230741  0.68718748    -0.35200
C1179       C  0.09471084  0.15346490  0.69118699     0.01000
C1180       C  0.10217876  0.16160017  0.70115604     0.07000
C1181       C  0.11508565  0.15470311  0.70281488    -0.06100
H1182       H  0.08395060  0.15534730  0.68740204     0.07700
H1183       H  0.12363249  0.15765031  0.71002280     0.08900
Cu1184     Cu  0.09857654  0.12524773  0.67297565     0.44200
Cu1185     Cu  0.13150657  0.12833578  0.69296664     0.42000
Cu1186     Cu  0.12676029  0.09732326  0.67124757     0.43900
N1187       N  0.09747017  0.10669385  0.66001117    -0.34700
N1188       N  0.10759481  0.09677534  0.65948930    -0.29000
C1189       C  0.10348148  0.08634511  0.65040335    -0.05100
C1190       C  0.09014626  0.08971291  0.64486407     0.07100
C1191       C  0.08670130  0.10272225  0.65120761     0.00900
H1192       H  0.10974370  0.07690972  0.64805898     0.08600
H1193       H  0.07699917  0.10881042  0.64961757     0.07700
N1194       N  0.14480419  0.10044955  0.68427791    -0.36200
N1195       N  0.14642571  0.11212759  0.69206543    -0.28300
C1196       C  0.15851931  0.11113711  0.69975734    -0.03600
C1197       C  0.16493771  0.09819476  0.69674148     0.05000
C1198       C  0.15593655  0.09163144  0.68690025     0.03100
H1199       H  0.16208308  0.11901936  0.70743338     0.08200
H1200       H  0.15718429  0.08107300  0.68234368     0.07100
N1201       N  0.38021336  0.14294786  0.82880283    -0.27300
N1202       N  0.39295988  0.14074977  0.83450211    -0.35200
C1203       C  0.40132674  0.15213200  0.83151219     0.01000
C1204       C  0.39342171  0.16185769  0.82352472     0.07000
C1205       C  0.38009722  0.15566427  0.82209148    -0.06100
H1206       H  0.41246398  0.15304727  0.83447257     0.07700
H1207       H  0.37112401  0.15985435  0.81611637     0.08900
Cu1208     Cu  0.39824449  0.12169097  0.84514710     0.44200
Cu1209     Cu  0.36401306  0.12792654  0.82866258     0.42000
Cu1210     Cu  0.37140127  0.09297836  0.84308516     0.43900
N1211       N  0.40038988  0.10163527  0.85504460    -0.34700
N1212       N  0.39066333  0.09136203  0.85439421    -0.29000
C1213       C  0.39521100  0.08010920  0.86220157    -0.05100
C1214       C  0.40843053  0.08337830  0.86804236     0.07100
C1215       C  0.41136536  0.09710625  0.86324130     0.00900
H1216       H  0.38926078  0.07029258  0.86360616     0.08600
H1217       H  0.42071663  0.10344125  0.86569867     0.07700
N1218       N  0.35315646  0.09770056  0.83100617    -0.36200
N1219       N  0.35044986  0.11068227  0.82608986    -0.28300
C1220       C  0.33844166  0.11039469  0.81821715    -0.03600
C1221       C  0.33329367  0.09655016  0.81803730     0.05000
C1222       C  0.34286342  0.08876405  0.82630486     0.03100
H1223       H  0.33404143  0.11951643  0.81261764     0.08200
H1224       H  0.34260111  0.07738027  0.82835924     0.07100
N1225       N  0.34522543  0.37674085  0.68830349    -0.27300
N1226       N  0.34829941  0.39012035  0.68493389    -0.35200
C1227       C  0.33804095  0.39867727  0.69036315     0.01000
C1228       C  0.32811076  0.39023193  0.69749380     0.07000
C1229       C  0.33299005  0.37638580  0.69583543    -0.06100
H1230       H  0.33820721  0.41023473  0.68987255     0.07700
H1231       H  0.32850206  0.36683536  0.70058545     0.08900
Cu1232     Cu  0.36732367  0.39584028  0.67457970     0.44200
Cu1233     Cu  0.35933299  0.36000098  0.68578760     0.42000
Cu1234     Cu  0.39559226  0.36878929  0.67626900     0.43900
N1235       N  0.38736746  0.39806445  0.66480611    -0.34700
N1236       N  0.39761009  0.38830759  0.66547105    -0.29000
C1237       C  0.40890080  0.39286503  0.65773213    -0.05100
C1238       C  0.40565083  0.40610012  0.65188054     0.07100
C1239       C  0.39191581  0.40904866  0.65662724     0.00900
H1240       H  0.41867086  0.38685217  0.65626809     0.08600
H1241       H  0.38557592  0.41838975  0.65411406     0.07700
N1242       N  0.38982813  0.34990500  0.68682061    -0.36200
N1243       N  0.37638446  0.34659273  0.68967531    -0.28300
C1244       C  0.37598773  0.33462345  0.69762216    -0.03600
C1245       C  0.38982491  0.33007521  0.69986248     0.05000
C1246       C  0.39837425  0.34001949  0.69292855     0.03100
H1247       H  0.36640604  0.33019934  0.70236209     0.08200
H1248       H  0.40992321  0.34052518  0.69309632     0.07100
N1249       N  0.41469369  0.23430823  0.78332521    -0.27300
N1250       N  0.42668470  0.23240379  0.79061694    -0.35200
C1251       C  0.42552069  0.22066617  0.79881839     0.01000
C1252       C  0.41215347  0.21478472  0.79682192     0.07000
C1253       C  0.40554358  0.22369703  0.78688845    -0.06100
H1254       H  0.43394437  0.21655733  0.80560210     0.07700
H1255       H  0.39490833  0.22248712  0.78252024     0.08900
Cu1256     Cu  0.44487718  0.24484901  0.78915568     0.44200
Cu1257     Cu  0.41158223  0.25119859  0.76858558     0.42000
Cu1258     Cu  0.44335854  0.27325538  0.76492824     0.43900
N1259       N  0.46274404  0.25663882  0.78376402    -0.34700
N1260       N  0.46209749  0.26716358  0.77439254    -0.29000
C1261       C  0.47535467  0.27173007  0.77138728    -0.05100
C1262       C  0.48482578  0.26367107  0.77932296     0.07100
C1263       C  0.47649830  0.25423397  0.78712753     0.00900
H1264       H  0.47790051  0.27983364  0.76352042     0.08600
H1265       H  0.48017860  0.24569411  0.79401445     0.07700
N1266       N  0.42453392  0.27738994  0.75461250    -0.36200
N1267       N  0.41281087  0.26951285  0.75536804    -0.28300
C1268       C  0.40287070  0.27547978  0.74670566    -0.03600
C1269       C  0.40879554  0.28760974  0.74042907     0.05000
C1270       C  0.42246771  0.28841516  0.74569852     0.03100
H1271       H  0.39217182  0.27138586  0.74514784     0.08200
H1272       H  0.43042766  0.29642494  0.74316685     0.07100
N1273       N  0.23280777  0.07207678  0.74141662    -0.27300
N1274       N  0.22938790  0.05960191  0.73568409    -0.35200
C1275       C  0.21835291  0.06132447  0.72668467     0.01000
C1276       C  0.21430236  0.07551106  0.72680638     0.07000
C1277       C  0.22375958  0.08208230  0.73622189    -0.06100
H1278       H  0.21320661  0.05270101  0.72095190     0.07700
H1279       H  0.22372845  0.09319621  0.73942389     0.08900
Cu1280     Cu  0.23776633  0.04008074  0.74162997     0.44200
Cu1281     Cu  0.24928855  0.07439758  0.75660878     0.42000
Cu1282     Cu  0.26165154  0.04011950  0.77073526     0.43900
N1283       N  0.24458253  0.02150927  0.75139331    -0.34700
N1284       N  0.25335631  0.02156686  0.76243620    -0.29000
C1285       C  0.25607864  0.00804015  0.76642124    -0.05100
C1286       C  0.24858429  0.99905251  0.75742745     0.07100
C1287       C  0.24136705  0.00792423  0.74804455     0.00900
H1288       H  0.26322271  0.00501093  0.77500042     0.08600
H1289       H  0.23453885  0.00477134  0.73925936     0.07700
N1290       N  0.27035482  0.05951250  0.77627702    -0.36200
N1291       N  0.26622734  0.07210201  0.77128983    -0.28300
C1292       C  0.27483033  0.08223512  0.77694128    -0.03600
C1293       C  0.28470399  0.07558415  0.78585866     0.05000
C1294       C  0.28152515  0.06122768  0.78509131     0.03100
H1295       H  0.27405971  0.09354986  0.77465107     0.08200
H1296       H  0.28710012  0.05257974  0.79038898     0.07100
N1297       N  0.08190232  0.23074172  0.74703930    -0.27300
N1298       N  0.06944719  0.22799530  0.74088999    -0.35200
C1299       C  0.07046149  0.21596853  0.73312010     0.01000
C1300       C  0.08417682  0.21076869  0.73426242     0.07000
C1301       C  0.09124040  0.22040040  0.74311772    -0.06100
H1302       H  0.06187536  0.21149723  0.72679669     0.07700
H1303       H  0.10234604  0.22000274  0.74630451     0.08900
Cu1304     Cu  0.05126744  0.24046404  0.74234046     0.44200
Cu1305     Cu  0.08522633  0.24863278  0.76047890     0.42000
Cu1306     Cu  0.05256006  0.26994274  0.76525177     0.43900
N1307       N  0.03370789  0.25341313  0.74576459    -0.34700
N1308       N  0.03414727  0.26436377  0.75463428    -0.29000
C1309       C  0.02098255  0.26996771  0.75593323    -0.05100
C1310       C  0.01182795  0.26215054  0.74737689     0.07100
C1311       C  0.02025502  0.25177002  0.74102394     0.00900
H1312       H  0.01821096  0.27869772  0.76299640     0.08600
H1313       H  0.01674450  0.24317053  0.73413367     0.07700
N1314       N  0.07166781  0.27420967  0.77525370    -0.36200
N1315       N  0.08371208  0.26693031  0.77368745    -0.28300
C1316       C  0.09397132  0.27350622  0.78148430    -0.03600
C1317       C  0.08793218  0.28534044  0.78817555     0.05000
C1318       C  0.07385344  0.28538769  0.78394929     0.03100
H1319       H  0.10504168  0.27019687  0.78192354     0.08200
H1320       H  0.06583731  0.29328953  0.78663171     0.07100
N1321       N  0.26790601  0.41752034  0.75131726    -0.27300
N1322       N  0.27386499  0.42976643  0.74751250    -0.35200
C1323       C  0.28344529  0.42744751  0.73707269     0.01000
C1324       C  0.28366985  0.41302403  0.73406714     0.07000
C1325       C  0.27370845  0.40698125  0.74332016    -0.06100
H1326       H  0.29029946  0.43558390  0.73251674     0.07700
H1327       H  0.27125927  0.39573468  0.74448572     0.08900
Cu1328     Cu  0.27039084  0.44892461  0.75772429     0.44200
Cu1329     Cu  0.25282292  0.41626370  0.76797123     0.42000
Cu1330     Cu  0.24977186  0.44905495  0.78983943     0.43900
N1331       N  0.26784720  0.46685693  0.77019137    -0.34700
N1332       N  0.26054125  0.46703571  0.78228823    -0.29000
C1333       C  0.26064045  0.48045488  0.78754073    -0.05100
C1334       C  0.26837458  0.48903003  0.77821475     0.07100
C1335       C  0.27278309  0.48003203  0.76737892     0.00900
H1336       H  0.25506935  0.48380477  0.79710850     0.08600
H1337       H  0.27883859  0.48288544  0.75792842     0.07700
N1338       N  0.23747035  0.43072494  0.79287506    -0.36200
N1339       N  0.23819974  0.41905451  0.78486852    -0.28300
C1340       C  0.22764920  0.41006457  0.78890845    -0.03600
C1341       C  0.21999311  0.41635043  0.79997508     0.05000
C1342       C  0.22655920  0.42940068  0.80218559     0.03100
H1343       H  0.22540331  0.39990672  0.78385556     0.08200
H1344       H  0.22320077  0.43765095  0.80957603     0.07100
N1345       N  0.32300902  0.84283397  0.88430152    -0.27300
N1346       N  0.32634010  0.84599254  0.89767313    -0.35200
C1347       C  0.32052626  0.83601134  0.90633929     0.01000
C1348       C  0.31317692  0.82619609  0.89796387     0.07000
C1349       C  0.31506514  0.83086283  0.88406127    -0.06100
H1350       H  0.32087604  0.83633348  0.91790498     0.07700
H1351       H  0.31017939  0.82644866  0.87455115     0.08900
Cu1352     Cu  0.33721617  0.86483939  0.90310556     0.44200
Cu1353     Cu  0.32652406  0.85647788  0.86730899     0.42000
Cu1354     Cu  0.33852680  0.89233856  0.87486861     0.43900
N1355       N  0.34794972  0.88444175  0.90514025    -0.34700
N1356       N  0.34840665  0.89439779  0.89504659    -0.29000
C1357       C  0.35635596  0.90546320  0.89983478    -0.05100
C1358       C  0.36118248  0.90235201  0.91354587     0.07100
C1359       C  0.35561208  0.88893113  0.91651171     0.00900
H1360       H  0.35860544  0.91501806  0.89370706     0.08600
H1361       H  0.35709481  0.88280623  0.92622207     0.07700
N1362       N  0.32824814  0.88647187  0.85567595    -0.36200
N1363       N  0.32452391  0.87311025  0.85294054    -0.28300
C1364       C  0.31749315  0.87254788  0.84042297    -0.03600
C1365       C  0.31655082  0.88621375  0.83489969     0.05000
C1366       C  0.32356746  0.89480446  0.84482101     0.03100
H1367       H  0.31278605  0.86295625  0.83600012     0.08200
H1368       H  0.32465847  0.90631447  0.84443774     0.07100
N1369       N  0.31267248  0.61132347  0.65807005    -0.27300
N1370       N  0.32034508  0.59946856  0.65704063    -0.35200
C1371       C  0.31854681  0.59177465  0.66916855     0.01000
C1372       C  0.30932357  0.59916880  0.67818196     0.07000
C1373       C  0.30581128  0.61145684  0.67074361    -0.06100
H1374       H  0.32318012  0.58134878  0.67108551     0.07700
H1375       H  0.29839597  0.61967488  0.67410236     0.08900
Cu1376     Cu  0.33191826  0.59405689  0.63843454     0.44200
Cu1377     Cu  0.31061582  0.62633970  0.64174482     0.42000
Cu1378     Cu  0.32531308  0.61725360  0.60733359     0.43900
N1379       N  0.34151346  0.59117507  0.61820376    -0.34700
N1380       N  0.33909414  0.59959796  0.60705549    -0.29000
C1381       C  0.34690381  0.59494514  0.59584437    -0.05100
C1382       C  0.35459000  0.58297561  0.60000666     0.07100
C1383       C  0.35088144  0.58090622  0.61426060     0.00900
H1384       H  0.34693800  0.59990806  0.58538470     0.08600
H1385       H  0.35475839  0.57256351  0.62127891     0.07700
N1386       N  0.31225597  0.63512910  0.61071386    -0.36200
N1387       N  0.30753130  0.63878101  0.62353149    -0.28300
C1388       C  0.29998885  0.65099496  0.62245892    -0.03600
C1389       C  0.29968124  0.65523308  0.60823134     0.05000
C1390       C  0.30757744  0.64483022  0.60110226     0.03100
H1391       H  0.29496678  0.65634751  0.63140540     0.08200
H1392       H  0.30968940  0.64429499  0.58973376     0.07100
N1393       N  0.19097097  0.60654826  0.87510256    -0.27300
N1394       N  0.18088285  0.59674224  0.87404011    -0.35200
C1395       C  0.18303571  0.58920271  0.86191127     0.01000
C1396       C  0.19527394  0.59435264  0.85513015     0.07000
C1397       C  0.19999548  0.60526562  0.86399420    -0.06100
H1398       H  0.17609039  0.58072213  0.85825810     0.07700
H1399       H  0.20929493  0.61195128  0.86240601     0.08900
Cu1400     Cu  0.16535058  0.59411980  0.88993915     0.44200
Cu1401     Cu  0.19112622  0.62234025  0.89067562     0.42000
Cu1402     Cu  0.16383685  0.62214445  0.91793244     0.43900
N1403       N  0.15255685  0.59300294  0.90828787    -0.34700
N1404       N  0.15195286  0.60294876  0.91837299    -0.29000
C1405       C  0.14283993  0.59850087  0.92867888    -0.05100
C1406       C  0.13748282  0.58515918  0.92494099     0.07100
C1407       C  0.14391333  0.58205970  0.91195757     0.00900
H1408       H  0.14034010  0.60451833  0.93824036     0.08600
H1409       H  0.14246968  0.57248942  0.90562903     0.07700
N1410       N  0.17790466  0.63949475  0.91468689    -0.36200
N1411       N  0.18801364  0.63918113  0.90478174    -0.28300
C1412       C  0.19544374  0.65148816  0.90513291    -0.03600
C1413       C  0.18983945  0.66010187  0.91575339     0.05000
C1414       C  0.17868827  0.65217255  0.92161201     0.03100
H1415       H  0.20429291  0.65401645  0.89811417     0.08200
H1416       H  0.17176926  0.65534922  0.93032834     0.07100
N1417       N  0.27120683  0.57569946  0.75128623    -0.27300
N1418       N  0.27893690  0.56414823  0.74855121    -0.35200
C1419       C  0.28707220  0.56641631  0.73691063     0.01000
C1420       C  0.28450474  0.58004110  0.73190249     0.07000
C1421       C  0.27431497  0.58566551  0.74121703    -0.06100
H1422       H  0.29405536  0.55851506  0.73215054     0.07700
H1423       H  0.26934838  0.59609076  0.74053019     0.08900
Cu1424     Cu  0.27783992  0.54512132  0.75982312     0.44200
Cu1425     Cu  0.25669434  0.57668952  0.76877815     0.42000
Cu1426     Cu  0.26131789  0.54636964  0.79349059     0.43900
N1427       N  0.27432761  0.52692339  0.77192651    -0.34700
N1428       N  0.26823923  0.52739568  0.78465540    -0.29000
C1429       C  0.26565594  0.51398034  0.78918423    -0.05100
C1430       C  0.27041780  0.50461933  0.77876922     0.07100
C1431       C  0.27592147  0.51319448  0.76800784     0.00900
H1432       H  0.25997861  0.51129788  0.79891841     0.08600
H1433       H  0.27996837  0.50976571  0.75772567     0.07700
N1434       N  0.24859017  0.56387331  0.79763122    -0.36200
N1435       N  0.24539790  0.57406457  0.78834709    -0.28300
C1436       C  0.23452355  0.58185849  0.79388088    -0.03600
C1437       C  0.23095323  0.57643917  0.80738453     0.05000
C1438       C  0.24036004  0.56519419  0.80930585     0.03100
H1439       H  0.22942068  0.59062335  0.78833034     0.08200
H1440       H  0.24098518  0.55813462  0.81845547     0.07100
N1441       N  0.25735558  0.76802489  0.92618851    -0.27300
N1442       N  0.26022536  0.77538669  0.93793674    -0.35200
C1443       C  0.27041949  0.78509892  0.93516537     0.01000
C1444       C  0.27424850  0.78398352  0.92098323     0.07000
C1445       C  0.26571931  0.77310154  0.91551105    -0.06100
H1446       H  0.27442407  0.79277263  0.94283739     0.07700
H1447       H  0.26546164  0.76934724  0.90456893     0.08900
Cu1448     Cu  0.24964668  0.77330725  0.95718738     0.44200
Cu1449     Cu  0.24183971  0.75158126  0.92574431     0.42000
Cu1450     Cu  0.21942487  0.75053026  0.95794840     0.43900
N1451       N  0.23704866  0.77091112  0.97513923    -0.34700
N1452       N  0.22557606  0.76270475  0.97536123    -0.29000
C1453       C  0.22032004  0.76233903  0.98875312    -0.05100
C1454       C  0.22897510  0.77069838  0.99735448     0.07100
C1455       C  0.23944375  0.77601542  0.98835296     0.00900
H1456       H  0.21147823  0.75569559  0.99214131     0.08600
H1457       H  0.24859052  0.78243412  0.99131451     0.07700
N1458       N  0.21769345  0.73609214  0.94125665    -0.36200
N1459       N  0.22595818  0.73596393  0.92974021    -0.28300
C1460       C  0.22289210  0.72407415  0.92211120    -0.03600
C1461       C  0.21217134  0.71653246  0.92914941     0.05000
C1462       C  0.20920644  0.72448273  0.94121772     0.03100
H1463       H  0.22837563  0.72088133  0.91243265     0.08200
H1464       H  0.20190229  0.72166032  0.94974413     0.07100
N1465       N  0.19234040  0.85344501  0.60577496    -0.27300
N1466       N  0.18365928  0.85498994  0.59472191    -0.35200
C1467       C  0.18505301  0.84336080  0.58621486     0.01000
C1468       C  0.19504063  0.83414665  0.59233411     0.07000
C1469       C  0.19939463  0.84097157  0.60467698    -0.06100
H1470       H  0.17916721  0.84164818  0.57640680     0.07700
H1471       H  0.20711476  0.83710094  0.61237342     0.08900
Cu1472     Cu  0.17042659  0.87320628  0.59258467     0.44200
Cu1473     Cu  0.19417414  0.86809084  0.62219796     0.42000
Cu1474     Cu  0.17277943  0.89994562  0.62215437     0.43900
N1475       N  0.15876675  0.89258558  0.59343952    -0.34700
N1476       N  0.15960401  0.90210026  0.60393374    -0.29000
C1477       C  0.15078976  0.91315947  0.60089940    -0.05100
C1478       C  0.14405177  0.91058616  0.58791727     0.07100
C1479       C  0.14940420  0.89742799  0.58355414     0.00900
H1480       H  0.14939872  0.92243803  0.60766367     0.08600
H1481       H  0.14669234  0.89176528  0.57384035     0.07700
N1482       N  0.18717970  0.89481911  0.63876547    -0.36200
N1483       N  0.19493443  0.88300052  0.63846902    -0.28300
C1484       C  0.20337074  0.88247631  0.65008853    -0.03600
C1485       C  0.20097083  0.89456221  0.65822728     0.05000
C1486       C  0.19057567  0.90217365  0.65075093     0.03100
H1487       H  0.21087734  0.87397175  0.65236034     0.08200
H1488       H  0.18605264  0.91240958  0.65368014     0.07100
N1489       N  0.24417832  0.91204983  0.73013851    -0.27300
N1490       N  0.23811257  0.92456475  0.72748917    -0.35200
C1491       C  0.23009426  0.92370514  0.71563209     0.01000
C1492       C  0.23099043  0.91000901  0.71035256     0.07000
C1493       C  0.24005802  0.90282389  0.71975773    -0.06100
H1494       H  0.22406463  0.93249352  0.71112657     0.07700
H1495       H  0.24332856  0.89174737  0.71911673     0.08900
Cu1496     Cu  0.24087686  0.94286555  0.73928176     0.44200
Cu1497     Cu  0.25772412  0.90883981  0.74808930     0.42000
Cu1498     Cu  0.26565715  0.94249684  0.76731512     0.43900
N1499       N  0.24619777  0.96104972  0.75032585    -0.34700
N1500       N  0.25564869  0.96103140  0.76078528    -0.29000
C1501       C  0.25764798  0.97452079  0.76530750    -0.05100
C1502       C  0.24904525  0.98339658  0.75717074     0.07100
C1503       C  0.24191009  0.97450855  0.74780018     0.00900
H1504       H  0.26514708  0.97765002  0.77353480     0.08600
H1505       H  0.23454122  0.97760122  0.73943760     0.07700
N1506       N  0.27354523  0.92270231  0.77305430    -0.36200
N1507       N  0.27068822  0.91037637  0.76667860    -0.28300
C1508       C  0.27728461  0.89984544  0.77413467    -0.03600
C1509       C  0.28463466  0.90598056  0.78553814     0.05000
C1510       C  0.28196154  0.92041385  0.78444794     0.03100
H1511       H  0.27672359  0.88859153  0.77152974     0.08200
H1512       H  0.28565279  0.92868994  0.79163570     0.07100
N1513       N  0.22897551  0.75810837  0.57319260    -0.27300
N1514       N  0.21998535  0.75865117  0.56224218    -0.35200
C1515       C  0.21278590  0.77110853  0.56255844     0.01000
C1516       C  0.21732006  0.77891384  0.57423139     0.07000
C1517       C  0.22756389  0.77033809  0.58078545    -0.06100
H1518       H  0.20472111  0.77422326  0.55487069     0.07700
H1519       H  0.23352196  0.77282472  0.59038119     0.08900
Cu1520     Cu  0.21752310  0.74291942  0.54677390     0.44200
Cu1521     Cu  0.24292644  0.74066005  0.57723388     0.42000
Cu1522     Cu  0.24210826  0.71430767  0.54910102     0.43900
N1523       N  0.21882404  0.72704159  0.53134201    -0.34700
N1524       N  0.22819138  0.71653394  0.53229169    -0.29000
C1525       C  0.22813110  0.70896234  0.52011320    -0.05100
C1526       C  0.21824262  0.71499662  0.51097221     0.07100
C1527       C  0.21245210  0.72641818  0.51844805     0.00900
H1528       H  0.23547546  0.70034007  0.51774315     0.08600
H1529       H  0.20510137  0.73437148  0.51439540     0.07700
N1530       N  0.25526041  0.71265981  0.56658644    -0.36200
N1531       N  0.25555664  0.72181273  0.57736529    -0.28300
C1532       C  0.26433337  0.71642388  0.58755286    -0.03600
C1533       C  0.26982228  0.70343250  0.58270904     0.05000
C1534       C  0.26377229  0.70147200  0.56943828     0.03100
H1535       H  0.26614960  0.72126517  0.59790015     0.08200
H1536       H  0.26484067  0.69215494  0.56266153     0.07100
N1537       N  0.38056483  0.81028261  0.15203308    -0.27300
N1538       N  0.39282519  0.81722989  0.15104775    -0.35200
C1539       C  0.40035099  0.81485684  0.16316317     0.01000
C1540       C  0.39235669  0.80599284  0.17207879     0.07000
C1541       C  0.37987497  0.80344284  0.16464693    -0.06100
H1542       H  0.41100299  0.81888086  0.16515683     0.07700
H1543       H  0.37110148  0.79667060  0.16796162     0.08900
Cu1544     Cu  0.39835586  0.82883373  0.13254572     0.44200
Cu1545     Cu  0.36581211  0.80890239  0.13576226     0.42000
Cu1546     Cu  0.37282082  0.82558572  0.10213072     0.43900
N1547       N  0.40051483  0.83930154  0.11270009    -0.34700
N1548       N  0.39138605  0.83811006  0.10191770    -0.29000
C1549       C  0.39586605  0.84644746  0.09102563    -0.05100
C1550       C  0.40838956  0.85323619  0.09504299     0.07100
C1551       C  0.41101495  0.84842636  0.10884247     0.00900
H1552       H  0.39031513  0.84757228  0.08093813     0.08600
H1553       H  0.41983443  0.85147406  0.11566656     0.07700
N1554       N  0.35489636  0.81268547  0.10579394    -0.36200
N1555       N  0.35255768  0.80660567  0.11834292    -0.28300
C1556       C  0.34051587  0.79883175  0.11774917    -0.03600
C1557       C  0.33480915  0.80009237  0.10418806     0.05000
C1558       C  0.34421923  0.80896106  0.09683599     0.03100
H1559       H  0.33624562  0.79265367  0.12656243     0.08200
H1560       H  0.34333952  0.81245269  0.08583199     0.07100
N1561       N  0.10830909  0.68861587  0.14717163    -0.27300
N1562       N  0.09837481  0.67871364  0.14877970    -0.35200
C1563       C  0.09147893  0.68107581  0.16123746     0.01000
C1564       C  0.09748526  0.69300300  0.16772596     0.07000
C1565       C  0.10813567  0.69743994  0.15849826    -0.06100
H1566       H  0.08276471  0.67462528  0.16527413     0.07700
H1567       H  0.11531724  0.70638643  0.15995688     0.08900
Cu1568     Cu  0.09550033  0.66249254  0.13369702     0.44200
Cu1569     Cu  0.12220627  0.68921600  0.13008593     0.42000
Cu1570     Cu  0.12486398  0.65836870  0.10731419     0.43900
N1571       N  0.09540091  0.64788711  0.11677108    -0.34700
N1572       N  0.10589988  0.64627467  0.10737513    -0.29000
C1573       C  0.10186918  0.63646667  0.09758935    -0.05100
C1574       C  0.08822484  0.63169552  0.10094788     0.07100
C1575       C  0.08451908  0.63915528  0.11319137     0.00900
H1576       H  0.10826343  0.63331837  0.08846973     0.08600
H1577       H  0.07447491  0.63856556  0.11890063     0.07700
N1578       N  0.14043341  0.67455259  0.10798761    -0.36200
N1579       N  0.13845375  0.68633468  0.11551274    -0.28300
C1580       C  0.14941200  0.69530332  0.11334452    -0.03600
C1581       C  0.15918038  0.68886153  0.10429893     0.05000
C1582       C  0.15308395  0.67563536  0.10107993     0.03100
H1583       H  0.15028775  0.70575371  0.11822577     0.08200
H1584       H  0.15752926  0.66737063  0.09432019     0.07100
N1585       N  0.26243105  0.76201018  0.08012552    -0.27300
N1586       N  0.26416388  0.77117302  0.06946077    -0.35200
C1587       C  0.27640229  0.77841010  0.07128428     0.01000
C1588       C  0.28277443  0.77370702  0.08370179     0.07000
C1589       C  0.27364158  0.76332721  0.08913389    -0.06100
H1590       H  0.28033685  0.78660296  0.06411069     0.07700
H1591       H  0.27502758  0.75724993  0.09888911     0.08900
Cu1592     Cu  0.25032381  0.77379612  0.05252480     0.44200
Cu1593     Cu  0.24463029  0.74838428  0.08163642     0.42000
Cu1594     Cu  0.21776347  0.75500725  0.05371851     0.43900
N1595       N  0.23670547  0.77286747  0.03525349    -0.34700
N1596       N  0.22454554  0.76573615  0.03560739    -0.29000
C1597       C  0.21934114  0.76472195  0.02223781    -0.05100
C1598       C  0.22874559  0.77154737  0.01305638     0.07100
C1599       C  0.23957150  0.77668893  0.02169813     0.00900
H1600       H  0.21009269  0.75843965  0.01929946     0.08600
H1601       H  0.24944754  0.78163327  0.01826119     0.07700
N1602       N  0.21507072  0.74095190  0.07058912    -0.36200
N1603       N  0.22492539  0.73769380  0.08020320    -0.28300
C1604       C  0.21987953  0.72697657  0.08847977    -0.03600
C1605       C  0.20616161  0.72347862  0.08391371     0.05000
C1606       C  0.20353141  0.73268761  0.07264329     0.03100
H1607       H  0.22580927  0.72202767  0.09709341     0.08200
H1608       H  0.19394016  0.73321030  0.06620247     0.07100
N1609       N  0.35312227  0.69222993  0.40586572    -0.27300
N1610       N  0.35378883  0.68320260  0.41673501    -0.35200
C1611       C  0.34156294  0.68440826  0.42436149     0.01000
C1612       C  0.33301753  0.69476850  0.41793908     0.07000
C1613       C  0.34071018  0.69942754  0.40626420    -0.06100
H1614       H  0.33889341  0.67797117  0.43360583     0.07700
H1615       H  0.33726849  0.70704964  0.39826351     0.08900
Cu1616     Cu  0.37141222  0.66936638  0.41949363     0.44200
Cu1617     Cu  0.36820136  0.69338526  0.38996280     0.42000
Cu1618     Cu  0.39845334  0.66979722  0.39017808     0.43900
N1619       N  0.39014888  0.65673501  0.41912505    -0.34700
N1620       N  0.39976654  0.65682279  0.40868219    -0.29000
C1621       C  0.41019307  0.64733215  0.41192106    -0.05100
C1622       C  0.40707486  0.64091899  0.42497635     0.07100
C1623       C  0.39428470  0.64720245  0.42917829     0.00900
H1624       H  0.41935791  0.64517712  0.40519597     0.08600
H1625       H  0.38833520  0.64492989  0.43884620     0.07700
N1626       N  0.39415940  0.68430389  0.37336742    -0.36200
N1627       N  0.38287970  0.69282251  0.37365235    -0.28300
C1628       C  0.38272277  0.70110698  0.36191808    -0.03600
C1629       C  0.39445557  0.69774238  0.35369340     0.05000
C1630       C  0.40158334  0.68708305  0.36125345     0.03100
H1631       H  0.37478959  0.70922602  0.35969600     0.08200
H1632       H  0.41152491  0.68196651  0.35829668     0.07100
N1633       N  0.13342507  0.80419201  0.39933429    -0.27300
N1634       N  0.13524200  0.81531546  0.40782312    -0.35200
C1635       C  0.14765919  0.81362001  0.41498138     0.01000
C1636       C  0.15379341  0.80071778  0.41078622     0.07000
C1637       C  0.14434833  0.79507338  0.40094989    -0.06100
H1638       H  0.15187756  0.82118188  0.42264629     0.07700
H1639       H  0.14538494  0.78505165  0.39526165     0.08900
Cu1640     Cu  0.11983442  0.83146296  0.40911966     0.44200
Cu1641     Cu  0.11706973  0.80234382  0.38483587     0.42000
Cu1642     Cu  0.09068789  0.82967371  0.38201309     0.43900
N1643       N  0.10140274  0.84415239  0.40921881    -0.34700
N1644       N  0.09096512  0.84346624  0.39965642    -0.29000
C1645       C  0.08058911  0.85273749  0.40343684    -0.05100
C1646       C  0.08464400  0.85957025  0.41594062     0.07100
C1647       C  0.09788332  0.85385673  0.41926980     0.00900
H1648       H  0.07073823  0.85426583  0.39758210     0.08600
H1649       H  0.10443069  0.85642038  0.42845140     0.07700
N1650       N  0.09333576  0.81373658  0.36653510    -0.36200
N1651       N  0.10302288  0.80356093  0.36801888    -0.28300
C1652       C  0.10248990  0.79470916  0.35674670    -0.03600
C1653       C  0.09193089  0.79946160  0.34764382     0.05000
C1654       C  0.08629381  0.81157315  0.35412348     0.03100
H1655       H  0.10929088  0.78546210  0.35529896     0.08200
H1656       H  0.07764663  0.81817732  0.35019740     0.07100
N1657       N  0.21677811  0.74758055  0.43191862    -0.27300
N1658       N  0.20583529  0.74298927  0.43961397    -0.35200
C1659       C  0.19470741  0.75183651  0.43789370     0.01000
C1660       C  0.19872666  0.76286490  0.42893551     0.07000
C1661       C  0.21284092  0.75980122  0.42528248    -0.06100
H1662       H  0.18448011  0.75050635  0.44313917     0.07700
H1663       H  0.21979141  0.76607318  0.41848142     0.08900
Cu1664     Cu  0.20667032  0.72682254  0.45447616     0.44200
Cu1665     Cu  0.23636950  0.73654776  0.43103621     0.42000
Cu1666     Cu  0.23815315  0.70672375  0.45645146     0.43900
N1667       N  0.21243265  0.71607939  0.47276254    -0.34700
N1668       N  0.22413238  0.70823821  0.47342065    -0.29000
C1669       C  0.22708051  0.70538385  0.48718569    -0.05100
C1670       C  0.21688381  0.71203376  0.49560547     0.07100
C1671       C  0.20769599  0.71863687  0.48609768     0.00900
H1672       H  0.23693585  0.70055185  0.49081969     0.08600
H1673       H  0.19924240  0.72610326  0.48869293     0.07700
N1674       N  0.25376399  0.71116754  0.44147332    -0.36200
N1675       N  0.25358882  0.72211768  0.43248266    -0.28300
C1676       C  0.26612939  0.72232554  0.42531183    -0.03600
C1677       C  0.27448216  0.71099768  0.43009832     0.05000
C1678       C  0.26627116  0.70422355  0.44031461     0.03100
H1679       H  0.26907643  0.73027704  0.41742999     0.08200
H1680       H  0.26937794  0.69517587  0.44683408     0.07100
N1681       N  0.07233070  0.75867475  0.27564376    -0.27300
N1682       N  0.05977921  0.76455431  0.27855619    -0.35200
C1683       C  0.06076832  0.77233357  0.29056095     0.01000
C1684       C  0.07456451  0.77142929  0.29552470     0.07000
C1685       C  0.08169441  0.76269810  0.28587306    -0.06100
H1686       H  0.05199273  0.77809700  0.29542750     0.07700
H1687       H  0.09276164  0.75938492  0.28636007     0.08900
Cu1688     Cu  0.04121274  0.76177187  0.26708232     0.44200
Cu1689     Cu  0.07575150  0.74510164  0.25804573     0.42000
Cu1690     Cu  0.04200231  0.73548449  0.24063230     0.43900
N1691       N  0.02317267  0.75617528  0.25581676    -0.34700
N1692       N  0.02338463  0.74590227  0.24616293    -0.29000
C1693       C  0.01015062  0.74412085  0.24089972    -0.05100
C1694       C  0.00121502  0.75384019  0.24756073     0.07100
C1695       C  0.00980960  0.76132963  0.25696606     0.00900
H1696       H  0.00727858  0.73635252  0.23282243     0.08600
H1697       H  0.00657343  0.76967104  0.26428903     0.07700
N1698       N  0.06181597  0.72836659  0.23410860    -0.36200
N1699       N  0.07422725  0.73192448  0.23989616    -0.28300
C1700       C  0.08480250  0.72643804  0.23169779    -0.03600
C1701       C  0.07860173  0.71911075  0.22037218     0.05000
C1702       C  0.06409507  0.72060855  0.22227089     0.03100
H1703       H  0.09609147  0.72817925  0.23346952     0.08200
H1704       H  0.05577549  0.71697293  0.21511177     0.07100
N1705       N  0.41276488  0.76716494  0.24560118    -0.27300
N1706       N  0.42512882  0.77287546  0.24168529    -0.35200
C1707       C  0.42330360  0.78083730  0.22989448     0.01000
C1708       C  0.40916272  0.78025376  0.22595833     0.07000
C1709       C  0.40270595  0.77142399  0.23609055    -0.06100
H1710       H  0.43182049  0.78631527  0.22428805     0.07700
H1711       H  0.39161288  0.76817780  0.23636930     0.08900
Cu1712     Cu  0.44477706  0.76932009  0.25092310     0.44200
Cu1713     Cu  0.41061207  0.75356031  0.26367277     0.42000
Cu1714     Cu  0.44551430  0.74476767  0.27869514     0.43900
N1715       N  0.46371268  0.76305381  0.26018641    -0.34700
N1716       N  0.46384743  0.75380136  0.27082506    -0.29000
C1717       C  0.47739664  0.75098279  0.27450971    -0.05100
C1718       C  0.48624627  0.75876149  0.26560330     0.07100
C1719       C  0.47724698  0.76632985  0.25661850     0.00900
H1720       H  0.48053129  0.74335260  0.28262856     0.08600
H1721       H  0.48027335  0.77328606  0.24787195     0.07700
N1722       N  0.42656413  0.73750679  0.28694115    -0.36200
N1723       N  0.41364775  0.74073390  0.28216645    -0.28300
C1724       C  0.40398055  0.73500405  0.29132421    -0.03600
C1725       C  0.41132978  0.72795439  0.30223507     0.05000
C1726       C  0.42555170  0.72972355  0.29893344     0.03100
H1727       H  0.39252281  0.73623863  0.29039120     0.08200
H1728       H  0.43460442  0.72604905  0.30513075     0.07100
C1729       C  0.09032661  0.79878445  0.32087768    -0.01900
C1730       C  0.08741209  0.79241232  0.33424419     0.07800
C1731       C  0.08086218  0.77884009  0.33481141    -0.02000
C1732       C  0.07716521  0.77172300  0.32208182    -0.02000
C1733       C  0.07995028  0.77815369  0.30873525     0.07900
C1734       C  0.08647770  0.79171031  0.30814358    -0.02200
Br1735     Br  0.08976070  0.80070790  0.28985444    -0.00700
Br1736     Br  0.09998567  0.81697781  0.31999489    -0.00800
Br1737     Br  0.06812123  0.75319668  0.32289363    -0.00800
Br1738     Br  0.07644841  0.77020672  0.35306275    -0.00800
C1739       C  0.17673144  0.78787439  0.40553880    -0.01900
C1740       C  0.16716256  0.79366263  0.41572657     0.07800
C1741       C  0.16961085  0.79113550  0.43041303    -0.02000
C1742       C  0.18090924  0.78214244  0.43474084    -0.02000
C1743       C  0.18935910  0.77493882  0.42443074     0.07900
C1744       C  0.18751899  0.77825498  0.40980365    -0.02200
Br1745     Br  0.19872615  0.76874917  0.39528931    -0.00700
Br1746     Br  0.17517773  0.79317017  0.38559826    -0.00800
Br1747     Br  0.18482022  0.77990926  0.45493609    -0.00800
Br1748     Br  0.15683144  0.79881033  0.44472371    -0.00800
C1749       C  0.30073798  0.71671597  0.42938053    -0.01900
C1750       C  0.28941832  0.70724263  0.42626177     0.07800
C1751       C  0.29250165  0.69365119  0.42044930    -0.02000
C1752       C  0.30676671  0.68952431  0.41788928    -0.02000
C1753       C  0.31808034  0.69884814  0.42132377     0.07900
C1754       C  0.31501593  0.71252807  0.42689131    -0.02200
Br1755     Br  0.33045349  0.72543301  0.43138898    -0.00700
Br1756     Br  0.29679880  0.73517717  0.43772353    -0.00800
Br1757     Br  0.31079583  0.67134628  0.40899446    -0.00800
Br1758     Br  0.27713336  0.68081727  0.41547848    -0.00800
C1759       C  0.40722509  0.71774945  0.34140249    -0.01900
C1760       C  0.39885766  0.70528083  0.34045593     0.07800
C1761       C  0.39359957  0.70086715  0.32703306    -0.02000
C1762       C  0.39725628  0.70850329  0.31450698    -0.02000
C1763       C  0.40587013  0.72085859  0.31540070     0.07900
C1764       C  0.41058331  0.72560354  0.32897492    -0.02200
Br1765     Br  0.42113118  0.74327041  0.33073739    -0.00700
Br1766     Br  0.41396158  0.72414529  0.35984159    -0.00800
Br1767     Br  0.39102835  0.70160050  0.29610429    -0.00800
Br1768     Br  0.38131974  0.68435508  0.32588677    -0.00800
C1769       C  0.18160450  0.70291001  0.10919383    -0.01900
C1770       C  0.17290731  0.69538210  0.09933938     0.07800
C1771       C  0.17676264  0.69543204  0.08470373    -0.02000
C1772       C  0.18862785  0.70348427  0.08000428    -0.02000
C1773       C  0.19601326  0.71255511  0.08958646     0.07900
C1774       C  0.19264173  0.71194958  0.10430219    -0.02200
Br1775     Br  0.20210036  0.72435811  0.11782206    -0.00700
Br1776     Br  0.17886818  0.70055146  0.12957373    -0.00800
Br1777     Br  0.19498897  0.70168161  0.06039869    -0.00800
Br1778     Br  0.16528349  0.68562704  0.07063635    -0.00800
C1779       C  0.09419268  0.69217680  0.19443642    -0.01900
C1780       C  0.09340134  0.69986400  0.18144035     0.07800
C1781       C  0.08899072  0.71431170  0.18160045    -0.02000
C1782       C  0.08510644  0.72088242  0.19457801    -0.02000
C1783       C  0.08538331  0.71303971  0.20744821     0.07900
C1784       C  0.09014156  0.69875662  0.20739896    -0.02200
Br1785     Br  0.09070899  0.68814285  0.22509038    -0.00700
Br1786     Br  0.10108260  0.67272983  0.19459431    -0.00800
Br1787     Br  0.07915599  0.74065644  0.19475166    -0.00800
Br1788     Br  0.08721897  0.72492316  0.16395053    -0.00800
C1789       C  0.30842349  0.79554817  0.10620116    -0.01900
C1790       C  0.32149667  0.79321058  0.09896116     0.07800
C1791       C  0.32187898  0.78376878  0.08718315    -0.02000
C1792       C  0.30927940  0.77691455  0.08258364    -0.02000
C1793       C  0.29624277  0.77935922  0.08975367     0.07900
C1794       C  0.29588188  0.78854117  0.10168105    -0.02200
Br1795     Br  0.27802791  0.79202274  0.11144170    -0.00700
Br1796     Br  0.30735748  0.80914372  0.12171030    -0.00800
Br1797     Br  0.30989542  0.76383859  0.06661992    -0.00800
Br1798     Br  0.33970628  0.77975549  0.07758424    -0.00800
C1799       C  0.40307089  0.80180195  0.21121990    -0.01900
C1800       C  0.40323852  0.78677982  0.21274542     0.07800
C1801       C  0.39985499  0.77811278  0.20089654    -0.02000
C1802       C  0.39665918  0.78439534  0.18754691    -0.02000
C1803       C  0.39646291  0.79944606  0.18600389     0.07900
C1804       C  0.39959319  0.80811723  0.19794789    -0.02200
Br1805     Br  0.39878547  0.82867069  0.19629016    -0.00700
Br1806     Br  0.40748564  0.81375961  0.22745173    -0.00800
Br1807     Br  0.39373576  0.77223311  0.17111043    -0.00800
Br1808     Br  0.40042906  0.75756052  0.20271498    -0.00800
C1809       C  0.20110328  0.90002971  0.68465656    -0.01900
C1810       C  0.20861886  0.89852102  0.67163927     0.07800
C1811       C  0.22365053  0.90012893  0.67157991    -0.02000
C1812       C  0.23107146  0.90305709  0.68439938    -0.02000
C1813       C  0.22352474  0.90478484  0.69733788     0.07900
C1814       C  0.20850737  0.90334251  0.69739310    -0.02200
Br1815     Br  0.19807597  0.90582925  0.71504675    -0.00700
Br1816     Br  0.18071190  0.89705432  0.68521437    -0.00800
Br1817     Br  0.25155894  0.90536418  0.68413064    -0.00800
Br1818     Br  0.23406281  0.89933451  0.65375327    -0.00800
C1819       C  0.20337746  0.79422385  0.59139982    -0.01900
C1820       C  0.21171506  0.79309296  0.57887325     0.07800
C1821       C  0.21406987  0.80541479  0.57042989    -0.02000
C1822       C  0.20839748  0.81878140  0.57464762    -0.02000
C1823       C  0.20012936  0.81992315  0.58723307     0.07900
C1824       C  0.19760292  0.80754781  0.59554740    -0.02200
Br1825     Br  0.18576871  0.80871355  0.61243018    -0.00700
Br1826     Br  0.19933959  0.77734898  0.60259128    -0.00800
Br1827     Br  0.21263319  0.83569081  0.56359046    -0.00800
Br1828     Br  0.22552954  0.80409886  0.55330826    -0.00800
C1829       C  0.20426026  0.57493858  0.83829871    -0.01900
C1830       C  0.20223610  0.58958761  0.84148106     0.07800
C1831       C  0.20786669  0.59988155  0.83190266    -0.02000
C1832       C  0.21737173  0.59578813  0.82090038    -0.02000
C1833       C  0.21976473  0.58114733  0.81793148     0.07900
C1834       C  0.21211548  0.57083255  0.82604872    -0.02200
Br1835     Br  0.21147829  0.55104179  0.82006898    -0.00700
Br1836     Br  0.19748772  0.56019564  0.85111352    -0.00800
Br1837     Br  0.22794232  0.61056394  0.81110768    -0.00800
Br1838     Br  0.20190218  0.61963737  0.83312726    -0.00800
C1839       C  0.18693481  0.68689198  0.91706558    -0.01900
C1840       C  0.19514467  0.67453950  0.91990465     0.07800
C1841       C  0.20887985  0.67606256  0.92597824    -0.02000
C1842       C  0.21441719  0.68977284  0.92899682    -0.02000
C1843       C  0.20637497  0.70211525  0.92578897     0.07900
C1844       C  0.19250493  0.70061595  0.92007191    -0.02200
Br1845     Br  0.18121030  0.71744275  0.91622510    -0.00700
Br1846     Br  0.16830992  0.68506577  0.90844187    -0.00800
Br1847     Br  0.23281055  0.69165822  0.93812566    -0.00800
Br1848     Br  0.22000595  0.65930087  0.93056154    -0.00800
C1849       C  0.31031472  0.59661102  0.70499812    -0.01900
C1850       C  0.30300973  0.59434609  0.69199627     0.07800
C1851       C  0.28934126  0.58798387  0.69224906    -0.02000
C1852       C  0.28305130  0.58387868  0.70536540    -0.02000
C1853       C  0.29035040  0.58610019  0.71837325     0.07900
C1854       C  0.30401010  0.59250554  0.71813516    -0.02200
Br1855     Br  0.31409870  0.59555769  0.73585104    -0.00700
Br1856     Br  0.32901867  0.60525891  0.70474285    -0.00800
Br1857     Br  0.26454417  0.57480658  0.70552287    -0.00800
Br1858     Br  0.27942442  0.58445555  0.67451636    -0.00800
C1859       C  0.27083779  0.68309734  0.60009886    -0.01900
C1860       C  0.27799866  0.69229927  0.59056024     0.07800
C1861       C  0.29231520  0.68940899  0.58684562    -0.02000
C1862       C  0.29950046  0.67749142  0.59274902    -0.02000
C1863       C  0.29223633  0.66800402  0.60207865     0.07900
C1864       C  0.27777381  0.67086059  0.60558804    -0.02200
Br1865     Br  0.26677259  0.65735793  0.61670293    -0.00700
Br1866     Br  0.25115166  0.68688923  0.60502625    -0.00800
Br1867     Br  0.31943420  0.67459053  0.58823226    -0.00800
Br1868     Br  0.30203708  0.70181971  0.57350353    -0.00800
C1869       C  0.29369458  0.88765799  0.82068706    -0.01900
C1870       C  0.30847532  0.89064865  0.82189799     0.07800
C1871       C  0.31555169  0.89754958  0.81048377    -0.02000
C1872       C  0.30786164  0.90183028  0.79821804    -0.02000
C1873       C  0.29305452  0.89916112  0.79717128     0.07900
C1874       C  0.28606887  0.89178263  0.80831729    -0.02200
Br1875     Br  0.26585216  0.88795184  0.80694861    -0.00700
Br1876     Br  0.28351502  0.87889548  0.83639804    -0.00800
Br1877     Br  0.31766258  0.91119214  0.78264097    -0.00800
Br1878     Br  0.33588833  0.90082567  0.81144381    -0.00800
C1879       C  0.28844350  0.81597263  0.90041866    -0.01900
C1880       C  0.30329785  0.81478316  0.90291146     0.07800
C1881       C  0.30862716  0.80278798  0.91034376    -0.02000
C1882       C  0.29914791  0.79234601  0.91571268    -0.02000
C1883       C  0.28429993  0.79368715  0.91347134     0.07900
C1884       C  0.27900283  0.80543973  0.90565767    -0.02200
Br1885     Br  0.25867168  0.80758135  0.90293642    -0.00700
Br1886     Br  0.28080337  0.83252961  0.89070788    -0.00800
Br1887     Br  0.30645727  0.77625675  0.92635975    -0.00800
Br1888     Br  0.32895932  0.80053752  0.91293575    -0.00800
C1889       C  0.39524940  0.32245002  0.72489139    -0.01900
C1890       C  0.39434722  0.31904240  0.71023467     0.07800
C1891       C  0.39737718  0.30504009  0.70560142    -0.02000
C1892       C  0.40162728  0.29453645  0.71556107    -0.02000
C1893       C  0.40247059  0.29791741  0.73023681     0.07900
C1894       C  0.39923239  0.31189906  0.73487205    -0.02200
Br1895     Br  0.40045037  0.31665040  0.75492973    -0.00700
Br1896     Br  0.39139919  0.34171348  0.73123767    -0.00800
Br1897     Br  0.40722139  0.27580482  0.70901358    -0.00800
Br1898     Br  0.39585847  0.30036913  0.68556949    -0.00800
C1899       C  0.31604492  0.39194845  0.72153482    -0.01900
C1900       C  0.31614429  0.39513236  0.70672825     0.07800
C1901       C  0.30494117  0.40333369  0.70083738    -0.02000
C1902       C  0.29393126  0.40859430  0.70969801    -0.02000
C1903       C  0.29411372  0.40584209  0.72454205     0.07900
C1904       C  0.30518702  0.39747538  0.73042092    -0.02200
Br1905     Br  0.30620144  0.39459778  0.75086478    -0.00700
Br1906     Br  0.33120036  0.38075833  0.73000786    -0.00800
Br1907     Br  0.27846765  0.41949628  0.70146832    -0.00800
Br1908     Br  0.30445068  0.40706155  0.68052343    -0.00800
C1909       C  0.30918514  0.08478065  0.81693442    -0.01900
C1910       C  0.32081739  0.09121775  0.80980383     0.07800
C1911       C  0.32032620  0.09293865  0.79478241    -0.02000
C1912       C  0.30824666  0.08840463  0.78699596    -0.02000
C1913       C  0.29666222  0.08189596  0.79412682     0.07900
C1914       C  0.29717369  0.08012366  0.80912599    -0.02200
Br1915     Br  0.28115860  0.07170762  0.81909788    -0.00700
Br1916     Br  0.30945207  0.08270040  0.83748402    -0.00800
Br1917     Br  0.30796548  0.09041151  0.76643607    -0.00800
Br1918     Br  0.33664027  0.10053625  0.78463973    -0.00800
C1919       C  0.39841729  0.17669178  0.80165354    -0.01900
C1920       C  0.39834589  0.17535532  0.81671136     0.07800
C1921       C  0.40251557  0.18708715  0.82519659    -0.02000
C1922       C  0.40660576  0.20008739  0.81869980    -0.02000
C1923       C  0.40672071  0.20143831  0.80361952     0.07900
C1924       C  0.40261923  0.18964568  0.79513634    -0.02200
Br1925     Br  0.40358407  0.19082337  0.77453361    -0.00700
Br1926     Br  0.39353482  0.16047673  0.78984053    -0.00800
Br1927     Br  0.41143016  0.21625090  0.83060588    -0.00800
Br1928     Br  0.40215912  0.18551989  0.84579208    -0.00800
C1929       C  0.09125194  0.17232186  0.72318923    -0.01900
C1930       C  0.09730159  0.17420848  0.70948743     0.07800
C1931       C  0.09978232  0.18816484  0.70432692    -0.02000
C1932       C  0.09599628  0.20014406  0.71269512    -0.02000
C1933       C  0.08987508  0.19825394  0.72635515     0.07900
C1934       C  0.08758365  0.18430121  0.73160754    -0.02200
Br1935     Br  0.07940721  0.18164262  0.75037099    -0.00700
Br1936     Br  0.08784650  0.15326492  0.73032748    -0.00800
Br1937     Br  0.09886227  0.21921346  0.70535045    -0.00800
Br1938     Br  0.10834046  0.19084783  0.68575176    -0.00800
C1939       C  0.18793829  0.07563564  0.72155917    -0.01900
C1940       C  0.20163631  0.08168728  0.71941200     0.07800
C1941       C  0.20321482  0.09314233  0.70968949    -0.02000
C1942       C  0.19124869  0.09841960  0.70214514    -0.02000
C1943       C  0.17765339  0.09217061  0.70409822     0.07900
C1944       C  0.17604680  0.08080031  0.71387289    -0.02200
Br1945     Br  0.15735752  0.07273674  0.71731563    -0.00700
Br1946     Br  0.18512269  0.06079422  0.73568420    -0.00800
Br1947     Br  0.19355395  0.11398628  0.68877854    -0.00800
Br1948     Br  0.22187034  0.10120827  0.70614536    -0.00800
C1949       C  0.10092062  0.32217326  0.79873115    -0.01900
C1950       C  0.10347352  0.32034024  0.81347750     0.07800
C1951       C  0.10227288  0.30663326  0.81963329    -0.02000
C1952       C  0.09781037  0.29492782  0.81122648    -0.02000
C1953       C  0.09485585  0.29684780  0.79655493     0.07900
C1954       C  0.09669935  0.31045009  0.79028693    -0.02200
Br1955     Br  0.09332637  0.31302192  0.77007077    -0.00700
Br1956     Br  0.10284364  0.34085553  0.79016270    -0.00800
Br1957     Br  0.09503137  0.27644959  0.81994012    -0.00800
Br1958     Br  0.10672277  0.30399113  0.83960576    -0.00800
C1959       C  0.20641328  0.40781409  0.82159831    -0.01900
C1960       C  0.20660127  0.41122056  0.80687439     0.07800
C1961       C  0.19382021  0.41026153  0.79890572    -0.02000
C1962       C  0.18100238  0.40593001  0.80560140    -0.02000
C1963       C  0.18080776  0.40265789  0.82033307     0.07900
C1964       C  0.19357335  0.40350111  0.82827962    -0.02200
Br1965     Br  0.19348412  0.39833691  0.84826400    -0.00700
Br1966     Br  0.22388354  0.40853080  0.83251884    -0.00800
Br1967     Br  0.16364082  0.40441914  0.79458170    -0.00800
Br1968     Br  0.19369453  0.41541360  0.77890762    -0.00800
C1969       C  0.79384101  0.19413587  0.60265550    -0.01900
C1970       C  0.79419379  0.20903995  0.60037301     0.07800
C1971       C  0.80704370  0.21656545  0.60268049    -0.02000
C1972       C  0.81953598  0.20920945  0.60686595    -0.02000
C1973       C  0.81931406  0.19422689  0.60872059     0.07900
C1974       C  0.80632334  0.18677572  0.60695108    -0.02200
Br1975     Br  0.80560511  0.16651492  0.61067705    -0.00700
Br1976     Br  0.77634891  0.18376516  0.59934644    -0.00800
Br1977     Br  0.83709656  0.21964896  0.60963305    -0.00800
Br1978     Br  0.80755909  0.23699103  0.59977127    -0.00800
C1979       C  0.90265047  0.21322836  0.68267759    -0.01900
C1980       C  0.90497112  0.19826534  0.68281510     0.07800
C1981       C  0.91271638  0.19212600  0.69425229    -0.02000
C1982       C  0.91770126  0.20077871  0.70558653    -0.02000
C1983       C  0.91513152  0.21563712  0.70553698     0.07900
C1984       C  0.90783348  0.22185340  0.69391930    -0.02200
Br1985     Br  0.90560968  0.24235596  0.69308464    -0.00700
Br1986     Br  0.89318577  0.22221398  0.66665712    -0.00800
Br1987     Br  0.92820527  0.19233270  0.72121234    -0.00800
Br1988     Br  0.91628741  0.17181086  0.69463266    -0.00800
C1989       C  0.66621190  0.27762818  0.59749261    -0.01900
C1990       C  0.66769761  0.29027929  0.60552887     0.07800
C1991       C  0.68147353  0.29517280  0.60919168    -0.02000
C1992       C  0.69370917  0.28759000  0.60461907    -0.02000
C1993       C  0.69222986  0.27492663  0.59655776     0.07900
C1994       C  0.67841835  0.26999236  0.59300665    -0.02200
Br1995     Br  0.67618907  0.25260355  0.58213509    -0.00700
Br1996     Br  0.64737860  0.27063500  0.59285176    -0.00800
Br1997     Br  0.71250629  0.29496657  0.60872443    -0.00800
Br1998     Br  0.68353421  0.31244680  0.62025870    -0.00800
C1999       C  0.58190769  0.30087026  0.71449249    -0.01900
C2000       C  0.57908709  0.28607979  0.71548383     0.07800
C2001       C  0.58026959  0.27744150  0.70318992    -0.02000
C2002       C  0.58443404  0.28351117  0.69003028    -0.02000
C2003       C  0.58752235  0.29825713  0.68907964     0.07900
C2004       C  0.58611524  0.30694727  0.70132857    -0.02200
Br2005     Br  0.59036431  0.32710404  0.70020230    -0.00700
Br2006     Br  0.58040282  0.31274112  0.73131200    -0.00800
Br2007     Br  0.58511893  0.27171327  0.67309979    -0.00800
Br2008     Br  0.57549772  0.25738605  0.70419746    -0.00800
C2009       C  0.81675163  0.28168165  0.90761492    -0.01900
C2010       C  0.82497146  0.28998303  0.91728797     0.07800
C2011       C  0.82006820  0.29128408  0.93157442    -0.02000
C2012       C  0.80729480  0.28451261  0.93593070    -0.02000
C2013       C  0.80034635  0.27457480  0.92683380     0.07900
C2014       C  0.80524421  0.27324084  0.91257627    -0.02200
Br2015     Br  0.79726275  0.25903928  0.89988844    -0.00700
Br2016     Br  0.82035635  0.28246722  0.88725279    -0.00800
Br2017     Br  0.79898094  0.28990018  0.95411665    -0.00800
Br2018     Br  0.83118116  0.30113150  0.94592726    -0.00800
C2019       C  0.90860260  0.29854909  0.82484690    -0.01900
C2020       C  0.90770842  0.28915558  0.83668546     0.07800
C2021       C  0.91041621  0.27440507  0.83449415    -0.02000
C2022       C  0.91420743  0.26923403  0.82077609    -0.02000
C2023       C  0.91577307  0.27875707  0.80916498     0.07900
C2024       C  0.91283955  0.29341484  0.81126353    -0.02200
Br2025     Br  0.91424266  0.30647063  0.79531620    -0.00700
Br2026     Br  0.90320571  0.31836733  0.82688879    -0.00800
Br2027     Br  0.91788089  0.24911294  0.81803385    -0.00800
Br2028     Br  0.90992978  0.26124655  0.85042118    -0.00800
C2029       C  0.67244987  0.20160257  0.93473511    -0.01900
C2030       C  0.66706757  0.20287330  0.92068059     0.07800
C2031       C  0.67530969  0.21032672  0.91035453    -0.02000
C2032       C  0.68793706  0.21758272  0.91440099    -0.02000
C2033       C  0.69332667  0.21624108  0.92849460     0.07900
C2034       C  0.68594979  0.20725456  0.93824112    -0.02200
Br2035     Br  0.69469123  0.20135069  0.95604649    -0.00700
Br2036     Br  0.66091582  0.19345390  0.94984801    -0.00800
Br2037     Br  0.69712553  0.22989656  0.90058413    -0.00800
Br2038     Br  0.66988748  0.21014868  0.89039507    -0.00800
C2039       C  0.59628953  0.21678844  0.81897171    -0.01900
C2040       C  0.58252598  0.21459026  0.81320326     0.07800
C2041       C  0.57378219  0.20374104  0.81909199    -0.02000
C2042       C  0.57774856  0.19678753  0.83185952    -0.02000
C2043       C  0.59133604  0.19933343  0.83798565     0.07900
C2044       C  0.60091774  0.20865083  0.83082422    -0.02200
Br2045     Br  0.62065407  0.21000411  0.83675795    -0.00700
Br2046     Br  0.60851313  0.23172835  0.81164844    -0.00800
Br2047     Br  0.56365563  0.18507571  0.84142439    -0.00800
Br2048     Br  0.55640373  0.19798671  0.80947426    -0.00800
C2049       C  0.78220740  0.30122129  0.11419111    -0.01900
C2050       C  0.78876846  0.28881164  0.10865941     0.07800
C2051       C  0.80382977  0.28814734  0.10787548    -0.02000
C2052       C  0.81223621  0.29988812  0.11224358    -0.02000
C2053       C  0.80567074  0.31244908  0.11736114     0.07900
C2054       C  0.79061656  0.31297439  0.11856456    -0.02200
Br2055     Br  0.78139125  0.33010886  0.12547018    -0.00700
Br2056     Br  0.76164045  0.30252149  0.11489486    -0.00800
Br2057     Br  0.83280763  0.29864988  0.11156571    -0.00800
Br2058     Br  0.81297842  0.27102203  0.10090406    -0.00800
C2059       C  0.78358330  0.38781884  0.19023311    -0.01900
C2060       C  0.79742994  0.39390383  0.18915903     0.07800
C2061       C  0.80159023  0.40445476  0.19912332    -0.02000
C2062       C  0.79180187  0.40946363  0.20944454    -0.02000
C2063       C  0.77785400  0.40380550  0.21010202     0.07900
C2064       C  0.77392195  0.39266544  0.20077903    -0.02200
Br2065     Br  0.75496567  0.38458097  0.20197145    -0.00700
Br2066     Br  0.77718088  0.37362509  0.17666892    -0.00800
Br2067     Br  0.79756194  0.42398188  0.22293377    -0.00800
Br2068     Br  0.82089429  0.41171956  0.19908666    -0.00800
C2069       C  0.69628494  0.40135032  0.30667036    -0.01900
C2070       C  0.70593700  0.41288906  0.30604515     0.07800
C2071       C  0.70923467  0.42054938  0.31862630    -0.02000
C2072       C  0.70288190  0.41670891  0.33175925    -0.02000
C2073       C  0.69314074  0.40521784  0.33237213     0.07900
C2074       C  0.68988791  0.39753942  0.31977654    -0.02200
Br2075     Br  0.67621639  0.38207946  0.32030996    -0.00700
Br2076     Br  0.69138850  0.39107666  0.28945321    -0.00800
Br2077     Br  0.70818538  0.42670048  0.34902044    -0.00800
Br2078     Br  0.72301099  0.43590809  0.31800326    -0.00800
C2079       C  0.71512526  0.32340983  0.41158268    -0.01900
C2080       C  0.70002586  0.32353535  0.41187846     0.07800
C2081       C  0.69256165  0.31096537  0.41554082    -0.02000
C2082       C  0.70012869  0.29844583  0.41916840    -0.02000
C2083       C  0.71521161  0.29833837  0.41895781     0.07900
C2084       C  0.72268826  0.31083889  0.41505679    -0.02200
Br2085     Br  0.74332134  0.31104959  0.41532017    -0.00700
Br2086     Br  0.72554857  0.34070572  0.40726115    -0.00800
Br2087     Br  0.68979616  0.28130467  0.42421781    -0.00800
Br2088     Br  0.67194483  0.31072712  0.41509179    -0.00800
C2089       C  0.68405290  0.08562833  0.19923567    -0.01900
C2090       C  0.69227830  0.08852546  0.18692730     0.07800
C2091       C  0.70730962  0.08734518  0.18760068    -0.02000
C2092       C  0.71407137  0.08345812  0.20051801    -0.02000
C2093       C  0.70585736  0.08069003  0.21287204     0.07900
C2094       C  0.69080835  0.08167769  0.21214418    -0.02200
Br2095     Br  0.67941656  0.07794667  0.22896629    -0.00700
Br2096     Br  0.66353064  0.08751353  0.19853023    -0.00800
Br2097     Br  0.73455998  0.08111177  0.20103439    -0.00800
Br2098     Br  0.71864261  0.09034181  0.17059414    -0.00800
C2099       C  0.71750987  0.18394095  0.10454034    -0.01900
C2100       C  0.70964422  0.19630178  0.10083663     0.07800
C2101       C  0.69458249  0.19534563  0.09972112    -0.02000
C2102       C  0.68750423  0.18226264  0.10237286    -0.02000
C2103       C  0.69535440  0.17004570  0.10641947     0.07900
C2104       C  0.71039465  0.17092302  0.10736866    -0.02200
Br2105     Br  0.72138397  0.15400179  0.11179099    -0.00700
Br2106     Br  0.73812779  0.18446204  0.10491204    -0.00800
Br2107     Br  0.66695840  0.18119760  0.10087644    -0.00800
Br2108     Br  0.68344945  0.21214317  0.09521361    -0.00800
C2109       C  0.79936953  0.09614712  0.31944866    -0.01900
C2110       C  0.79471312  0.09389485  0.33361683     0.07800
C2111       C  0.78160427  0.08695177  0.33616515    -0.02000
C2112       C  0.77327900  0.08208417  0.32459787    -0.02000
C2113       C  0.77794449  0.08429118  0.31037436     0.07900
C2114       C  0.79097181  0.09143789  0.30784515    -0.02200
Br2115     Br  0.79764733  0.09419510  0.28851168    -0.00700
Br2116     Br  0.81752202  0.10529329  0.31601280    -0.00800
Br2117     Br  0.75527769  0.07267324  0.32830825    -0.00800
Br2118     Br  0.77498452  0.08428257  0.35555058    -0.00800
C2119       C  0.79085823  0.18036219  0.41203710    -0.01900
C2120       C  0.80568517  0.18005398  0.40926776     0.07800
C2121       C  0.81389702  0.19253879  0.41123017    -0.02000
C2122       C  0.80725151  0.20533547  0.41564438    -0.02000
C2123       C  0.79239703  0.20568615  0.41815978     0.07900
C2124       C  0.78423585  0.19314436  0.41643815    -0.02200
Br2125     Br  0.76405493  0.19330568  0.42074291    -0.00700
Br2126     Br  0.77971694  0.16303897  0.41067002    -0.00800
Br2127     Br  0.81842802  0.22248773  0.41809106    -0.00800
Br2128     Br  0.83420368  0.19216755  0.40767077    -0.00800
C2129       C  0.58796407  0.78770107  0.20378451    -0.01900
C2130       C  0.58730337  0.78765342  0.21883907     0.07800
C2131       C  0.59092727  0.80008658  0.22650383    -0.02000
C2132       C  0.59438941  0.81275811  0.21912406    -0.02000
C2133       C  0.59464664  0.81295896  0.20400284     0.07900
C2134       C  0.59157739  0.80032676  0.19636130    -0.02200
Br2135     Br  0.59231560  0.80027761  0.17574575    -0.00700
Br2136     Br  0.58401810  0.77031029  0.19343462    -0.00800
Br2137     Br  0.59757531  0.83013380  0.22980375    -0.00800
Br2138     Br  0.59068025  0.79985124  0.24715664    -0.00800
C2139       C  0.67070834  0.89806740  0.22150307    -0.01900
C2140       C  0.67130532  0.89713204  0.20644778     0.07800
C2141       C  0.68405196  0.90070408  0.19922087    -0.02000
C2142       C  0.69621192  0.90496788  0.20704089    -0.02000
C2143       C  0.69561769  0.90579767  0.22208101     0.07900
C2144       C  0.68280497  0.90244939  0.22927936    -0.02200
Br2145     Br  0.68174317  0.90420168  0.24984462    -0.00700
Br2146     Br  0.65306924  0.89408633  0.23147813    -0.00800
Br2147     Br  0.71358415  0.91010823  0.19718897    -0.00800
Br2148     Br  0.68485816  0.89970264  0.17862778    -0.00800
C2149       C  0.58673828  0.69237536  0.30216727    -0.01900
C2150       C  0.57491619  0.69297864  0.29284034     0.07800
C2151       C  0.56657996  0.68058090  0.29057682    -0.02000
C2152       C  0.57020950  0.66764259  0.29741825    -0.02000
C2153       C  0.58220213  0.66699866  0.30648748     0.07900
C2154       C  0.59035655  0.67942430  0.30897588    -0.02200
Br2155     Br  0.60628054  0.67876197  0.32206768    -0.00700
Br2156     Br  0.59768625  0.70941690  0.30605479    -0.00800
Br2157     Br  0.55904472  0.65063635  0.29401528    -0.00800
Br2158     Br  0.55060671  0.68104135  0.27751351    -0.00800
C2159       C  0.68953330  0.59665346  0.29542559    -0.01900
C2160       C  0.69344355  0.58205520  0.29562820     0.07800
C2161       C  0.68620767  0.57273385  0.30511496    -0.02000
C2162       C  0.67382156  0.57729441  0.31240613    -0.02000
C2163       C  0.66951806  0.59179129  0.31177199     0.07900
C2164       C  0.67814529  0.60158593  0.30405255    -0.02200
Br2165     Br  0.67481851  0.62193054  0.30558525    -0.00700
Br2166     Br  0.69873794  0.60989232  0.28252227    -0.00800
Br2167     Br  0.66220967  0.56301030  0.32180066    -0.00800
Br2168     Br  0.69351538  0.55371176  0.30866394    -0.00800
C2169       C  0.81138403  0.90012312  0.30821580    -0.01900
C2170       C  0.82366194  0.90520197  0.30106527     0.07800
C2171       C  0.82219920  0.91242407  0.28789710    -0.02000
C2172       C  0.80854573  0.91456999  0.28191447    -0.02000
C2173       C  0.79627101  0.90966457  0.28915453     0.07900
C2174       C  0.79772084  0.90241237  0.30229213    -0.02200
Br2175     Br  0.78089552  0.89574506  0.31219624    -0.00700
Br2176     Br  0.81326607  0.88988753  0.32604492    -0.00800
Br2177     Br  0.80658256  0.92460598  0.26397995    -0.00800
Br2178     Br  0.83886836  0.92013169  0.27848596    -0.00800
C2179       C  0.89243237  0.80387370  0.29110894    -0.01900
C2180       C  0.90652056  0.79848650  0.29166451     0.07800
C2181       C  0.91614708  0.80432241  0.30179287    -0.02000
C2182       C  0.91247109  0.81667677  0.30965435    -0.02000
C2183       C  0.89870402  0.82276513  0.30822717     0.07900
C2184       C  0.88840092  0.81549034  0.29985616    -0.02200
Br2185     Br  0.86849448  0.82097883  0.30076524    -0.00700
Br2186     Br  0.87883807  0.79644350  0.27749018    -0.00800
Br2187     Br  0.92689310  0.82552624  0.32147100    -0.00800
Br2188     Br  0.93440231  0.79524916  0.30526451    -0.00800
C2189       C  0.89164164  0.68200607  0.20893938    -0.01900
C2190       C  0.89851577  0.66939480  0.21359038     0.07800
C2191       C  0.90870153  0.67016687  0.22466529    -0.02000
C2192       C  0.91210786  0.68345478  0.23092625    -0.02000
C2193       C  0.90559612  0.69613966  0.22595311     0.07900
C2194       C  0.89530363  0.69535913  0.21496870    -0.02200
Br2195     Br  0.88675242  0.71266389  0.20770579    -0.00700
Br2196     Br  0.87748211  0.68099714  0.19398859    -0.00800
Br2197     Br  0.92551422  0.68427087  0.24659473    -0.00800
Br2198     Br  0.91789877  0.65296070  0.23136509    -0.00800
C2199       C  0.81857509  0.58253104  0.22968218    -0.01900
C2200       C  0.82055840  0.58373503  0.21473098     0.07800
C2201       C  0.80884027  0.58139725  0.20553026    -0.02000
C2202       C  0.79520932  0.57833823  0.21123261    -0.02000
C2203       C  0.79322067  0.57709840  0.22618840     0.07900
C2204       C  0.80501421  0.57911281  0.23537662    -0.02200
Br2205     Br  0.80287842  0.57638625  0.25574482    -0.00700
Br2206     Br  0.83465897  0.58477906  0.24241803    -0.00800
Br2207     Br  0.77906749  0.57666975  0.19845588    -0.00800
Br2208     Br  0.81124320  0.58284775  0.18506002    -0.00800
loop_ 
_geom_bond_atom_site_label_1 
_geom_bond_atom_site_label_2 
_geom_bond_distance 
_geom_bond_site_symmetry_2 
_ccdc_geom_bond_type 
N1            N2   1.323       .  A
N1            C5   1.350       .  A
N1           Cu9   2.096       .  S
N2            C3   1.349       .  A
N2           Cu8   2.092       .  S
C3            C4   1.386       .  A
C3            H6   1.082       .  S
C4            C5   1.389       .  A
C4           C38   1.485       .  S
C5            H7   1.082       .  S
Cu8          N11   2.092       .  S
Cu9          N19   2.096       .  S
Cu10         N12   2.097       .  S
Cu10         N18   2.097       .  S
N11          N12   1.324       .  A
N11          C15   1.349       .  A
N12          C13   1.350       .  A
C13          C14   1.388       .  A
C13          H16   1.082       .  S
C14          C15   1.386       .  A
C14          C52   1.485       .  S
C15          H17   1.082       .  S
N18          N19   1.325       .  A
N18          C22   1.349       .  A
N19          C20   1.349       .  A
C20          C21   1.386       .  A
C20          H23   1.082       .  S
C21          C22   1.387       .  A
C21        C1238   1.484       .  S
C22          H24   1.082       .  S
N25          N26   1.325       .  A
N25          C29   1.351       .  A
N25         Cu33   2.103       .  S
N26          C27   1.350       .  A
N26         Cu32   2.104       .  S
C27          C28   1.389       .  A
C27          H30   1.082       .  S
C28          C29   1.388       .  A
C28         C124   1.489       .  S
C29          H31   1.082       .  S
Cu32         N35   2.103       .  S
Cu33         N43   2.103       .  S
Cu34         N36   2.091       .  S
Cu34         N42   2.092       .  S
N35          N36   1.324       .  A
N35          C39   1.350       .  A
N36          C37   1.349       .  A
C37          C38   1.386       .  A
C37          H40   1.082       .  S
C38          C39   1.389       .  A
C39          H41   1.082       .  S
N42          N43   1.324       .  A
N42          C46   1.349       .  A
N43          C44   1.351       .  A
C44          C45   1.390       .  A
C44          H47   1.082       .  S
C45          C46   1.387       .  A
C45        C1382   1.487       .  S
C46          H48   1.082       .  S
N49          N50   1.324       .  A
N49          C53   1.349       .  A
N49         Cu57   2.094       .  S
N50          C51   1.350       .  A
N50         Cu56   2.100       .  S
C51          C52   1.388       .  A
C51          H54   1.082       .  S
C52          C53   1.387       .  A
C53          H55   1.082       .  S
Cu56         N59   2.100       .  S
Cu57         N67   2.094       .  S
Cu58         N60   2.092       .  S
Cu58         N66   2.092       .  S
N59          N60   1.324       .  A
N59          C63   1.349       .  A
N60          C61   1.349       .  A
C61          C62   1.386       .  A
C61          H64   1.082       .  S
C62          C63   1.388       .  A
C62          C76   1.485       .  S
C63          H65   1.082       .  S
N66          N67   1.324       .  A
N66          C70   1.349       .  A
N67          C68   1.348       .  A
C68          C69   1.387       .  A
C68          H71   1.082       .  S
C69          C70   1.387       .  A
C69        C1046   1.484       .  S
C70          H72   1.082       .  S
N73          N74   1.324       .  A
N73          C77   1.351       .  A
N73         Cu81   2.102       .  S
N74          C75   1.348       .  A
N74         Cu80   2.089       .  S
C75          C76   1.385       .  A
C75          H78   1.082       .  S
C76          C77   1.389       .  A
C77          H79   1.082       .  S
Cu80         N83   2.089       .  S
Cu81         N91   2.102       .  S
Cu82         N84   2.102       .  S
Cu82         N90   2.102       .  S
N83          N84   1.323       .  A
N83          C87   1.349       .  A
N84          C85   1.351       .  A
C85          C86   1.390       .  A
C85          H88   1.082       .  S
C86          C87   1.386       .  A
C86         C110   1.487       .  S
C87          H89   1.082       .  S
N90          N91   1.325       .  A
N90          C94   1.349       .  A
N91          C92   1.351       .  A
C92          C93   1.388       .  A
C92          H95   1.082       .  S
C93          C94   1.388       .  A
C93         C830   1.487       .  S
C94          H96   1.082       .  S
N97          N98   1.324       .  A
N97         C101   1.351       .  A
N97        Cu105   2.094       .  S
N98          C99   1.352       .  A
N98        Cu104   2.112       .  S
C99         C100   1.391       .  A
C99         H102   1.082       .  S
C100        C101   1.387       .  A
C100        C134   1.491       .  S
C101        H103   1.082       .  S
Cu104       N107   2.112       .  S
Cu105       N115   2.093       .  S
Cu106       N108   2.091       .  S
Cu106       N114   2.091       .  S
N107        N108   1.325       .  A
N107        C111   1.351       .  A
N108        C109   1.349       .  A
C109        C110   1.385       .  A
C109        H112   1.082       .  S
C110        C111   1.390       .  A
C111        H113   1.082       .  S
N114        N115   1.323       .  A
N114        C118   1.350       .  A
N115        C116   1.348       .  A
C116        C117   1.386       .  A
C116        H119   1.082       .  S
C117        C118   1.387       .  A
C117        C662   1.483       .  S
C118        H120   1.082       .  S
N121        N122   1.323       .  A
N121        C125   1.352       .  A
N121       Cu129   2.105       .  S
N122        C123   1.349       .  A
N122       Cu128   2.093       .  S
C123        C124   1.387       .  A
C123        H126   1.082       .  S
C124        C125   1.390       .  A
C125        H127   1.082       .  S
Cu128       N131   2.093       .  S
Cu129       N139   2.106       .  S
Cu130       N132   2.119       .  S
Cu130       N138   2.119       .  S
N131        N132   1.325       .  A
N131        C135   1.349       .  A
N132        C133   1.353       .  A
C133        C134   1.393       .  A
C133        H136   1.082       .  S
C134        C135   1.386       .  A
C135        H137   1.082       .  S
N138        N139   1.326       .  A
N138        C142   1.354       .  A
N139        C140   1.351       .  A
C140        C141   1.388       .  A
C140        H143   1.082       .  S
C141        C142   1.392       .  A
C141       C1622   1.495       .  S
C142        H144   1.082       .  S
N145        N146   1.324       .  A
N145        C149   1.350       .  A
N145       Cu153   2.102       .  S
N146        C147   1.349       .  A
N146       Cu152   2.088       .  S
C147        C148   1.386       .  A
C147        H150   1.082       .  S
C148        C149   1.389       .  A
C148        C182   1.485   1_554  S
C149        H151   1.082       .  S
Cu152       N155   2.088       .  S
Cu153       N163   2.103       .  S
Cu154       N156   2.099       .  S
Cu154       N162   2.100       .  S
N155        N156   1.323       .  A
N155        C159   1.348       .  A
N156        C157   1.351       .  A
C157        C158   1.389   1_545  A
C157        H160   1.082       .  S
C158        C159   1.386   1_565  A
C158        C230   1.485       .  S
C159        H161   1.082       .  S
N162        N163   1.325       .  A
N162        C166   1.350       .  A
N163        C164   1.351       .  A
C164        C165   1.389       .  A
C164        H167   1.082       .  S
C165        C166   1.388       .  A
C165        C806   1.489       .  S
C166        H168   1.082       .  S
N169        N170   1.325       .  A
N169        C173   1.350       .  A
N169       Cu177   2.100       .  S
N170        C171   1.350       .  A
N170       Cu176   2.101       .  S
C171        C172   1.388       .  A
C171        H174   1.082       .  S
C172        C173   1.388       .  A
C172        C196   1.487       .  S
C173        H175   1.082       .  S
Cu176       N179   2.101       .  S
Cu177       N187   2.099       .  S
Cu178       N180   2.086       .  S
Cu178       N186   2.086       .  S
N179        N180   1.323       .  A
N179        C183   1.350       .  A
N180        C181   1.348       .  A
C181        C182   1.386       .  A
C181        H184   1.082       .  S
C182        C183   1.389       .  A
C183        H185   1.082       .  S
N186        N187   1.324       .  A
N186        C190   1.347       .  A
N187        C188   1.350       .  A
C188        C189   1.389       .  A
C188        H191   1.082       .  S
C189        C190   1.385       .  A
C189        C974   1.484       .  S
C190        H192   1.082       .  S
N193        N194   1.324       .  A
N193        C197   1.350       .  A
N193       Cu201   2.100       .  S
N194        C195   1.350       .  A
N194       Cu200   2.096       .  S
C195        C196   1.388       .  A
C195        H198   1.082       .  S
C196        C197   1.389       .  A
C197        H199   1.082       .  S
Cu200       N203   2.096       .  S
Cu201       N211   2.099       .  S
Cu202       N204   2.091       .  S
Cu202       N210   2.091       .  S
N203        N204   1.324       .  A
N203        C207   1.349       .  A
N204        C205   1.349       .  A
C205        C206   1.386       .  A
C205        H208   1.082       .  S
C206        C207   1.387       .  A
C206        C278   1.483   1_545  S
C207        H209   1.082       .  S
N210        N211   1.324       .  A
N210        C214   1.349       .  A
N211        C212   1.350       .  A
C212        C213   1.388       .  A
C212        H215   1.082       .  S
C213        C214   1.387       .  A
C213       C1214   1.485       .  S
C214        H216   1.082       .  S
N217        N218   1.324       .  A
N217        C221   1.349       .  A
N217       Cu225   2.098       .  S
N218        C219   1.349       .  A
N218       Cu224   2.091       .  S
C219        C220   1.386       .  A
C219        H222   1.082       .  S
C220        C221   1.387       .  A
C220        C244   1.484       .  S
C221        H223   1.082       .  S
Cu224       N227   2.091       .  S
Cu225       N235   2.098       .  S
Cu226       N228   2.098       .  S
Cu226       N234   2.098       .  S
N227        N228   1.324       .  A
N227        C231   1.348       .  A
N228        C229   1.351       .  A
C229        C230   1.388       .  A
C229        H232   1.082       .  S
C230        C231   1.386       .  A
C231        H233   1.082       .  S
N234        N235   1.324       .  A
N234        C238   1.349       .  A
N235        C236   1.351       .  A
C236        C237   1.388       .  A
C236        H239   1.082       .  S
C237        C238   1.388       .  A
C237        C686   1.487       .  S
C238        H240   1.082       .  S
N241        N242   1.324       .  A
N241        C245   1.348       .  A
N241       Cu249   2.090       .  S
N242        C243   1.350       .  A
N242       Cu248   2.097       .  S
C243        C244   1.388       .  A
C243        H246   1.082       .  S
C244        C245   1.386       .  A
C245        H247   1.082       .  S
Cu248       N251   2.098       .  S
Cu249       N259   2.091       .  S
Cu250       N252   2.093       .  S
Cu250       N258   2.093       .  S
N251        N252   1.324       .  A
N251        C255   1.349       .  A
N252        C253   1.350       .  A
C253        C254   1.386       .  A
C253        H256   1.082       .  S
C254        C255   1.388       .  A
C254        C268   1.484   1_554  S
C255        H257   1.082       .  S
N258        N259   1.323       .  A
N258        C262   1.349       .  A
N259        C260   1.349       .  A
C260        C261   1.387       .  A
C260        H263   1.082       .  S
C261        C262   1.387       .  A
C261       C1550   1.484       .  S
C262        H264   1.082       .  S
N265        N266   1.323       .  A
N265        C269   1.351       .  A
N265       Cu273   2.105       .  S
N266        C267   1.347       .  A
N266       Cu272   2.082       .  S
C267        C268   1.384       .  A
C267        H270   1.082       .  S
C268        C269   1.390       .  A
C269        H271   1.082       .  S
Cu272       N275   2.082       .  S
Cu273       N283   2.106       .  S
Cu274       N276   2.099       .  S
Cu274       N282   2.100       .  S
N275        N276   1.323       .  A
N275        C279   1.347       .  A
N276        C277   1.350       .  A
C277        C278   1.389       .  A
C277        H280   1.082       .  S
C278        C279   1.385       .  A
C279        H281   1.082       .  S
N282        N283   1.325       .  A
N282        C286   1.350       .  A
N283        C284   1.351       .  A
C284        C285   1.389       .  A
C284        H287   1.082       .  S
C285        C286   1.387       .  A
C285       C1358   1.489       .  S
C286        H288   1.082       .  S
N289        N290   1.323       .  A
N289        C293   1.348       .  A
N289       Cu297   2.086       .  S
N290        C291   1.349       .  A
N290       Cu296   2.093       .  S
C291        C292   1.387       .  A
C291        H294   1.082       .  S
C292        C293   1.386       .  A
C292        C326   1.482       .  S
C293        H295   1.082       .  S
Cu296       N299   2.093       .  S
Cu297       N307   2.086       .  S
Cu298       N300   2.104       .  S
Cu298       N306   2.103       .  S
N299        N300   1.324       .  A
N299        C303   1.348       .  A
N300        C301   1.352       .  A
C301        C302   1.390       .  A
C301        H304   1.082       .  S
C302        C303   1.386       .  A
C302        C374   1.487   1_455  S
C303        H305   1.082       .  S
N306        N307   1.324       .  A
N306        C310   1.350       .  A
N307        C308   1.348       .  A
C308        C309   1.385       .  A
C308        H311   1.082       .  S
C309        C310   1.389       .  A
C309       C1574   1.484       .  S
C310        H312   1.082       .  S
N313        N314   1.324       .  A
N313        C317   1.351       .  A
N313       Cu321   2.104       .  S
N314        C315   1.347       .  A
N314       Cu320   2.086       .  S
C315        C316   1.384       .  A
C315        H318   1.082       .  S
C316        C317   1.389       .  A
C316        C350   1.483       .  S
C317        H319   1.082       .  S
Cu320       N323   2.086       .  S
Cu321       N331   2.105       .  S
Cu322       N324   2.090       .  S
Cu322       N330   2.090       .  S
N323        N324   1.323       .  A
N323        C327   1.349       .  A
N324        C325   1.348       .  A
C325        C326   1.387   1_556  A
C325        H328   1.082       .  S
C326        C327   1.386   1_554  A
C327        H329   1.082       .  S
N330        N331   1.324       .  A
N330        C334   1.349       .  A
N331        C332   1.350       .  A
C332        C333   1.390       .  A
C332        H335   1.082       .  S
C333        C334   1.386       .  A
C333       C1406   1.486       .  S
C334        H336   1.082       .  S
N337        N338   1.325       .  A
N337        C341   1.352       .  A
N337       Cu345   2.114       .  S
N338        C339   1.349       .  A
N338       Cu344   2.093       .  S
C339        C340   1.386       .  A
C339        H342   1.082       .  S
C340        C341   1.391       .  A
C340        C422   1.489   1_455  S
C341        H343   1.082       .  S
Cu344       N347   2.093       .  S
Cu345       N355   2.114       .  S
Cu346       N348   2.087       .  S
Cu346       N354   2.088       .  S
N347        N348   1.323       .  A
N347        C351   1.348       .  A
N348        C349   1.349       .  A
C349        C350   1.386       .  A
C349        H352   1.082       .  S
C350        C351   1.388       .  A
C351        H353   1.082       .  S
N354        N355   1.324       .  A
N354        C358   1.347       .  A
N355        C356   1.353       .  A
C356        C357   1.392       .  A
C356        H359   1.082       .  S
C357        C358   1.385       .  A
C357       C1166   1.489       .  S
C358        H360   1.082       .  S
N361        N362   1.324       .  A
N361        C365   1.351       .  A
N361       Cu369   2.100       .  S
N362        C363   1.351       .  A
N362       Cu368   2.101       .  S
C363        C364   1.389       .  A
C363        H366   1.082       .  S
C364        C365   1.388       .  A
C364        C388   1.489       .  S
C365        H367   1.082       .  S
Cu368       N371   2.101       .  S
Cu369       N379   2.101       .  S
Cu370       N372   2.100       .  S
Cu370       N378   2.100       .  S
N371        N372   1.324       .  A
N371        C375   1.349       .  A
N372        C373   1.351       .  A
C373        C374   1.388       .  A
C373        H376   1.082       .  S
C374        C375   1.388       .  A
C375        H377   1.082       .  S
N378        N379   1.324       .  A
N378        C382   1.351       .  A
N379        C380   1.350       .  A
C380        C381   1.388       .  A
C380        H383   1.082       .  S
C381        C382   1.388       .  A
C381        C590   1.489       .  S
C382        H384   1.082       .  S
N385        N386   1.324       .  A
N385        C389   1.351       .  A
N385       Cu393   2.105       .  S
N386        C387   1.350       .  A
N386       Cu392   2.099       .  S
C387        C388   1.388       .  A
C387        H390   1.082       .  S
C388        C389   1.389       .  A
C389        H391   1.082       .  S
Cu392       N395   2.099       .  S
Cu393       N403   2.105       .  S
Cu394       N396   2.110       .  S
Cu394       N402   2.110       .  S
N395        N396   1.324       .  A
N395        C399   1.350       .  A
N396        C397   1.352       .  A
C397        C398   1.390       .  A
C397        H400   1.082       .  S
C398        C399   1.388       .  A
C398        C412   1.491       .  S
C399        H401   1.082       .  S
N402        N403   1.325       .  A
N402        C406   1.352       .  A
N403        C404   1.351       .  A
C404        C405   1.389       .  A
C404        H407   1.082       .  S
C405        C406   1.390       .  A
C405        C854   1.493       .  S
C406        H408   1.082       .  S
N409        N410   1.325       .  A
N409        C413   1.352       .  A
N409       Cu417   2.109       .  S
N410        C411   1.351       .  A
N410       Cu416   2.106       .  S
C411        C412   1.389   1_556  A
C411        H414   1.082       .  S
C412        C413   1.389   1_554  A
C413        H415   1.082       .  S
Cu416       N419   2.106       .  S
Cu417       N427   2.110       .  S
Cu418       N420   2.097       .  S
Cu418       N426   2.098       .  S
N419        N420   1.324       .  A
N419        C423   1.351       .  A
N420        C421   1.350       .  A
C421        C422   1.387       .  A
C421        H424   1.082       .  S
C422        C423   1.390       .  A
C423        H425   1.082       .  S
N426        N427   1.324       .  A
N426        C430   1.350       .  A
N427        C428   1.352       .  A
C428        C429   1.391       .  A
C428        H431   1.082       .  S
C429        C430   1.388       .  A
C429        C998   1.492       .  S
C430        H432   1.082       .  S
N433        N434   1.325       .  A
N433        C437   1.351       .  A
N433       Cu441   2.104       .  S
N434        C435   1.351       .  A
N434       Cu440   2.106       .  S
C435        C436   1.390       .  A
C435        H438   1.082       .  S
C436        C437   1.388       .  A
C436        C518   1.491   1_455  S
C437        H439   1.082       .  S
Cu440       N443   2.106       .  S
Cu441       N451   2.105       .  S
Cu442       N444   2.109       .  S
Cu442       N450   2.109       .  S
N443        N444   1.325       .  A
N443        C447   1.350       .  A
N444        C445   1.353       .  A
C445        C446   1.390       .  A
C445        H448   1.082       .  S
C446        C447   1.389       .  A
C446        C470   1.493   1_545  S
C447        H449   1.082       .  S
N450        N451   1.325       .  A
N450        C454   1.351       .  A
N451        C452   1.352       .  A
C452        C453   1.389       .  A
C452        H455   1.082       .  S
C453        C454   1.390       .  A
C453       C1190   1.493       .  S
C454        H456   1.082       .  S
N457        N458   1.323       .  A
N457        C461   1.350       .  A
N457       Cu465   2.098       .  S
N458        C459   1.350       .  A
N458       Cu464   2.096       .  S
C459        C460   1.388       .  A
C459        H462   1.082       .  S
C460        C461   1.388       .  A
C460        C484   1.487       .  S
C461        H463   1.082       .  S
Cu464       N467   2.097       .  S
Cu465       N475   2.099       .  S
Cu466       N468   2.117       .  S
Cu466       N474   2.118       .  S
N467        N468   1.325       .  A
N467        C471   1.349       .  A
N468        C469   1.354       .  A
C469        C470   1.392       .  A
C469        H472   1.082       .  S
C470        C471   1.387       .  A
C471        H473   1.082       .  S
N474        N475   1.325       .  A
N474        C478   1.354       .  A
N475        C476   1.350       .  A
C476        C477   1.387       .  A
C476        H479   1.082       .  S
C477        C478   1.392       .  A
C477       C1478   1.493       .  S
C478        H480   1.082       .  S
N481        N482   1.323       .  A
N481        C485   1.349       .  A
N481       Cu489   2.091       .  S
N482        C483   1.350       .  A
N482       Cu488   2.101       .  S
C483        C484   1.389       .  A
C483        H486   1.082       .  S
C484        C485   1.387       .  A
C485        H487   1.082       .  S
Cu488       N491   2.101       .  S
Cu489       N499   2.090       .  S
Cu490       N492   2.086       .  S
Cu490       N498   2.086       .  S
N491        N492   1.324       .  A
N491        C495   1.349       .  A
N492        C493   1.349       .  A
C493        C494   1.385       .  A
C493        H496   1.082       .  S
C494        C495   1.388       .  A
C494        C566   1.482   1_455  S
C495        H497   1.082       .  S
N498        N499   1.323       .  A
N498        C502   1.348       .  A
N499        C500   1.347       .  A
C500        C501   1.386       .  A
C500        H503   1.082       .  S
C501        C502   1.386       .  A
C501       C1646   1.480       .  S
C502        H504   1.082       .  S
N505        N506   1.324       .  A
N505        C509   1.350       .  A
N505       Cu513   2.102       .  S
N506        C507   1.349       .  A
N506       Cu512   2.093       .  S
C507        C508   1.386       .  A
C507        H510   1.082       .  S
C508        C509   1.388       .  A
C508        C542   1.485       .  S
C509        H511   1.082       .  S
Cu512       N515   2.093       .  S
Cu513       N523   2.103       .  S
Cu514       N516   2.115       .  S
Cu514       N522   2.115       .  S
N515        N516   1.324       .  A
N515        C519   1.350       .  A
N516        C517   1.353       .  A
C517        C518   1.391       .  A
C517        H520   1.082       .  S
C518        C519   1.387       .  A
C519        H521   1.082       .  S
N522        N523   1.325       .  A
N522        C526   1.352       .  A
N523        C524   1.352       .  A
C524        C525   1.389       .  A
C524        H527   1.082       .  S
C525        C526   1.391       .  A
C525       C1070   1.494       .  S
C526        H528   1.082       .  S
N529        N530   1.324       .  A
N529        C533   1.348       .  A
N529       Cu537   2.085       .  S
N530        C531   1.348       .  A
N530       Cu536   2.097       .  S
C531        C532   1.387       .  A
C531        H534   1.082       .  S
C532        C533   1.385       .  A
C532        C556   1.481   1_545  S
C533        H535   1.082       .  S
Cu536       N539   2.097       .  S
Cu537       N547   2.085       .  S
Cu538       N540   2.095       .  S
Cu538       N546   2.095       .  S
N539        N540   1.324       .  A
N539        C543   1.350       .  A
N540        C541   1.349       .  A
C541        C542   1.387       .  A
C541        H544   1.082       .  S
C542        C543   1.388       .  A
C543        H545   1.082       .  S
N546        N547   1.323       .  A
N546        C550   1.349       .  A
N547        C548   1.348       .  A
C548        C549   1.385       .  A
C548        H551   1.082       .  S
C549        C550   1.388       .  A
C549        C782   1.482       .  S
C550        H552   1.082       .  S
N553        N554   1.323       .  A
N553        C557   1.350       .  A
N553       Cu561   2.096       .  S
N554        C555   1.346       .  A
N554       Cu560   2.081       .  S
C555        C556   1.384       .  A
C555        H558   1.082       .  S
C556        C557   1.388       .  A
C557        H559   1.082       .  S
Cu560       N563   2.081       .  S
Cu561       N571   2.096       .  S
Cu562       N564   2.098       .  S
Cu562       N570   2.098       .  S
N563        N564   1.323       .  A
N563        C567   1.347       .  A
N564        C565   1.350       .  A
C565        C566   1.389       .  A
C565        H568   1.082       .  S
C566        C567   1.384       .  A
C567        H569   1.082       .  S
N570        N571   1.325       .  A
N570        C574   1.349       .  A
N571        C572   1.349       .  A
C572        C573   1.387       .  A
C572        H575   1.082       .  S
C573        C574   1.387       .  A
C573        C638   1.484       .  S
C574        H576   1.082       .  S
N577        N578   1.322       .  A
N577        C581   1.343       .  A
N577       Cu585   2.066       .  S
N578        C579   1.352       .  A
N578       Cu584   2.103       .  S
C579        C580   1.392       .  A
C579        H582   1.082       .  S
C580        C581   1.381       .  A
C580       C2200   1.489       .  S
C581        H583   1.082       .  S
Cu584       N587   2.104       .  S
Cu585       N595   2.066       .  S
Cu586       N588   2.110       .  S
Cu586       N594   2.109       .  S
N587        N588   1.326       .  A
N587        C591   1.350       .  A
N588        C589   1.351       .  A
C589        C590   1.389       .  A
C589        H592   1.082       .  S
C590        C591   1.387       .  A
C591        H593   1.082       .  S
N594        N595   1.323       .  A
N594        C598   1.352       .  A
N595        C596   1.345       .  A
C596        C597   1.380       .  A
C596        H599   1.082       .  S
C597        C598   1.391       .  A
C597       C2190   1.486       .  S
C598        H600   1.082       .  S
N601        N602   1.324       .  A
N601        C605   1.353       .  A
N601       Cu609   2.118       .  S
N602        C603   1.340       .  A
N602       Cu608   2.063       .  S
C603        C604   1.381       .  A
C603        H606   1.082       .  S
C604        C605   1.395       .  A
C604       C2180   1.495       .  S
C605        H607   1.082       .  S
Cu608       N611   2.063       .  S
Cu609       N619   2.119       .  S
Cu610       N612   2.057       .  S
Cu610       N618   2.058       .  S
N611        N612   1.319       .  A
N611        C615   1.345       .  A
N612        C613   1.343       .  A
C613        C614   1.382       .  A
C613        H616   1.082       .  S
C614        C615   1.384       .  A
C614       C1694   1.467   1_655  S
C615        H617   1.083       .  S
N618        N619   1.324       .  A
N618        C622   1.341       .  A
N619        C620   1.355       .  A
C620        C621   1.393       .  A
C620        H623   1.082       .  S
C621        C622   1.376       .  A
C621       C2193   1.486       .  S
C622        H624   1.082       .  S
N625        N626   1.322       .  A
N625        C629   1.344       .  A
N625       Cu633   2.064       .  S
N626        C627   1.349       .  A
N626       Cu632   2.092       .  S
C627        C628   1.388       .  A
C627        H630   1.082       .  S
C628        C629   1.380       .  A
C628       C2170   1.481       .  S
C629        H631   1.082       .  S
Cu632       N635   2.093       .  S
Cu633       N643   2.063       .  S
Cu634       N636   2.099       .  S
Cu634       N642   2.097       .  S
N635        N636   1.325       .  A
N635        C639   1.349       .  A
N636        C637   1.349       .  A
C637        C638   1.387       .  A
C637        H640   1.082       .  S
C638        C639   1.386       .  A
C639        H641   1.082       .  S
N642        N643   1.320       .  A
N642        C646   1.351       .  A
N643        C644   1.341       .  A
C644        C645   1.385       .  A
C644        H647   1.082       .  S
C645        C646   1.395       .  A
C645       C2183   1.497       .  S
C646        H648   1.081       .  S
N649        N650   1.322       .  A
N649        C653   1.343       .  A
N649       Cu657   2.066       .  S
N650        C651   1.350       .  A
N650       Cu656   2.090       .  S
C651        C652   1.387       .  A
C651        H654   1.082       .  S
C652        C653   1.379       .  A
C652       C2153   1.479       .  S
C653        H655   1.082       .  S
Cu656       N659   2.091       .  S
Cu657       N667   2.066       .  S
Cu658       N660   2.100       .  S
Cu658       N666   2.098       .  S
N659        N660   1.325       .  A
N659        C663   1.347       .  A
N660        C661   1.351       .  A
C661        C662   1.388       .  A
C661        H664   1.082       .  S
C662        C663   1.385       .  A
C663        H665   1.082       .  S
N666        N667   1.321       .  A
N666        C670   1.349       .  A
N667        C668   1.343       .  A
C668        C669   1.386       .  A
C668        H671   1.082       .  S
C669        C670   1.394       .  A
C669       C2163   1.498       .  S
C670        H672   1.081       .  S
N673        N674   1.322       .  A
N673        C677   1.341       .  A
N673       Cu681   2.055       .  S
N674        C675   1.352       .  A
N674       Cu680   2.108       .  S
C675        C676   1.391       .  A
C675        H678   1.082       .  S
C676        C677   1.378       .  A
C676       C2133   1.483       .  S
C677        H679   1.082       .  S
Cu680       N683   2.110       .  S
Cu681       N691   2.055       .  S
Cu682       N684   2.096       .  S
Cu682       N690   2.094       .  S
N683        N684   1.326       .  A
N683        C687   1.352       .  A
N684        C685   1.348       .  A
C685        C686   1.385       .  A
C685        H688   1.082       .  S
C686        C687   1.389       .  A
C687        H689   1.082       .  S
N690        N691   1.321       .  A
N690        C694   1.350       .  A
N691        C692   1.342       .  A
C692        C693   1.379       .  A
C692        H695   1.082       .  S
C693        C694   1.389       .  A
C693       C2140   1.480       .  S
C694        H696   1.082       .  S
N697        N698   1.324       .  A
N697        C701   1.352       .  A
N697       Cu705   2.102       .  S
N698        C699   1.340       .  A
N698       Cu704   2.058       .  S
C699        C700   1.375       .  A
C699        H702   1.082       .  S
C700        C701   1.389       .  A
C700       C2130   1.477       .  S
C701        H703   1.082       .  S
Cu704       N707   2.058       .  S
Cu705       N715   2.102       .  S
Cu706       N708   2.056       .  S
Cu706       N714   2.057       .  S
N707        N708   1.319       .  A
N707        C711   1.344       .  A
N708        C709   1.341       .  A
C709        C710   1.381       .  A
C709        H712   1.082       .  S
C710        C711   1.383       .  A
C710       C1718   1.464       .  S
C711        H713   1.082       .  S
N714        N715   1.323       .  A
N714        C718   1.342       .  A
N715        C716   1.350       .  A
C716        C717   1.389       .  A
C716        H719   1.082       .  S
C717        C718   1.378       .  A
C717       C2150   1.482       .  S
C718        H720   1.082       .  S
N721        N722   1.323       .  A
N721        C725   1.353       .  A
N721       Cu729   2.111       .  S
N722        C723   1.338       .  A
N722       Cu728   2.042       .  S
C723        C724   1.373       .  A
C723        H726   1.082       .  S
C724        C725   1.391       .  A
C724       C2143   1.476       .  S
C725        H727   1.082       .  S
Cu728       N731   2.041       .  S
Cu729       N739   2.112       .  S
Cu730       N732   2.059       .  S
Cu730       N738   2.061       .  S
N731        N732   1.318       .  A
N731        C735   1.340       .  A
N732        C733   1.344       .  A
C733        C734   1.384       .  A
C733        H736   1.082       .  S
C734        C735   1.379       .  A
C734        C926   1.463   1_565  S
C735        H737   1.082       .  S
N738        N739   1.326       .  A
N738        C742   1.341       .  A
N739        C740   1.353       .  A
C740        C741   1.389       .  A
C740        H743   1.082       .  S
C741        C742   1.375       .  A
C741       C2173   1.478       .  S
C742        H744   1.082       .  S
N745        N746   1.324       .  A
N745        C749   1.353       .  A
N745       Cu753   2.115       .  S
N746        C747   1.341       .  A
N746       Cu752   2.059       .  S
C747        C748   1.378       .  A
C747        H750   1.082       .  S
C748        C749   1.394       .  A
C748       C2203   1.489       .  S
C749        H751   1.082       .  S
Cu752       N755   2.058       .  S
Cu753       N763   2.115       .  S
Cu754       N756   2.066       .  S
Cu754       N762   2.066       .  S
N755        N756   1.318       .  A
N755        C759   1.344       .  A
N756        C757   1.344       .  A
C757        C758   1.385       .  A
C757        H760   1.082       .  S
C758        C759   1.383       .  A
C758        C878   1.469       .  S
C759        H761   1.082       .  S
N762        N763   1.323       .  A
N762        C766   1.340       .  A
N763        C764   1.354       .  A
C764        C765   1.396       .  A
C764        H767   1.081       .  S
C765        C766   1.382       .  A
C765       C2160   1.496       .  S
C766        H768   1.082       .  S
N769        N770   1.323       .  A
N769        C773   1.344       .  A
N769       Cu777   2.066       .  S
N770        C771   1.350       .  A
N770       Cu776   2.097       .  S
C771        C772   1.387       .  A
C771        H774   1.082       .  S
C772        C773   1.379       .  A
C772       C2110   1.479       .  S
C773        H775   1.082       .  S
Cu776       N779   2.098       .  S
Cu777       N787   2.065       .  S
Cu778       N780   2.090       .  S
Cu778       N786   2.089       .  S
N779        N780   1.325       .  A
N779        C783   1.349       .  A
N780        C781   1.348       .  A
C781        C782   1.385       .  A
C781        H784   1.082       .  S
C782        C783   1.387       .  A
C783        H785   1.082       .  S
N786        N787   1.322       .  A
N786        C790   1.349       .  A
N787        C788   1.343       .  A
C788        C789   1.381       .  A
C788        H791   1.082       .  S
C789        C790   1.387       .  A
C789       C2120   1.481       .  S
C790        H792   1.082       .  S
N793        N794   1.322       .  A
N793        C797   1.344       .  A
N793       Cu801   2.064       .  S
N794        C795   1.351       .  A
N794       Cu800   2.102       .  S
C795        C796   1.390       .  A
C795        H798   1.082       .  S
C796        C797   1.380       .  A
C796       C2090   1.485       .  S
C797        H799   1.082       .  S
Cu800       N803   2.103       .  S
Cu801       N811   2.064       .  S
Cu802       N804   2.109       .  S
Cu802       N810   2.108       .  S
N803        N804   1.326       .  A
N803        C807   1.350       .  A
N804        C805   1.351       .  A
C805        C806   1.389       .  A
C805        H808   1.082       .  S
C806        C807   1.387       .  A
C807        H809   1.082       .  S
N810        N811   1.322       .  A
N810        C814   1.353       .  A
N811        C812   1.343       .  A
C812        C813   1.380       .  A
C812        H815   1.082       .  S
C813        C814   1.392       .  A
C813       C2103   1.489       .  S
C814        H816   1.082       .  S
N817        N818   1.321       .  A
N817        C821   1.342       .  A
N817       Cu825   2.049       .  S
N818        C819   1.351       .  A
N818       Cu824   2.104       .  S
C819        C820   1.391       .  A
C819        H822   1.082       .  S
C820        C821   1.378       .  A
C820       C2080   1.483       .  S
C821        H823   1.082       .  S
Cu824       N827   2.107       .  S
Cu825       N835   2.049       .  S
Cu826       N828   2.101       .  S
Cu826       N834   2.099       .  S
N827        N828   1.326       .  A
N827        C831   1.351       .  A
N828        C829   1.349       .  A
C829        C830   1.387       .  A
C829        H832   1.081       .  S
C830        C831   1.388       .  A
C831        H833   1.082       .  S
N834        N835   1.321       .  A
N834        C838   1.351       .  A
N835        C836   1.341       .  A
C836        C837   1.378       .  A
C836        H839   1.082       .  S
C837        C838   1.391       .  A
C837       C2073   1.482       .  S
C838        H840   1.082       .  S
N841        N842   1.322       .  A
N841        C845   1.343       .  A
N841       Cu849   2.059       .  S
N842        C843   1.351       .  A
N842       Cu848   2.108       .  S
C843        C844   1.393       .  A
C843        H846   1.082       .  S
C844        C845   1.381       .  A
C844       C2060   1.491       .  S
C845        H847   1.082       .  S
Cu848       N851   2.109       .  S
Cu849       N859   2.060       .  S
Cu850       N852   2.110       .  S
Cu850       N858   2.109       .  S
N851        N852   1.326       .  A
N851        C855   1.351       .  A
N852        C853   1.352       .  A
C853        C854   1.389       .  A
C853        H856   1.082       .  S
C854        C855   1.389       .  A
C855        H857   1.082       .  S
N858        N859   1.322       .  A
N858        C862   1.352       .  A
N859        C860   1.344       .  A
C860        C861   1.380       .  A
C860        H863   1.082       .  S
C861        C862   1.391       .  A
C861       C2053   1.488       .  S
C862        H864   1.082       .  S
N865        N866   1.325       .  A
N865        C869   1.351       .  A
N865       Cu873   2.101       .  S
N866        C867   1.342       .  A
N866       Cu872   2.070       .  S
C867        C868   1.378       .  A
C867        H870   1.082       .  S
C868        C869   1.389       .  A
C868       C2063   1.482       .  S
C869        H871   1.082       .  S
Cu872       N875   2.069       .  S
Cu873       N883   2.100       .  S
Cu874       N876   2.059       .  S
Cu874       N882   2.060       .  S
N875        N876   1.319       .  A
N875        C879   1.345       .  A
N876        C877   1.343       .  A
C877        C878   1.382       .  A
C877        H880   1.082       .  S
C878        C879   1.385       .  A
C879        H881   1.082       .  S
N882        N883   1.324       .  A
N882        C886   1.342       .  A
N883        C884   1.350       .  A
C884        C885   1.388       .  A
C884        H887   1.082       .  S
C885        C886   1.377       .  A
C885       C2070   1.480       .  S
C886        H888   1.082       .  S
N889        N890   1.324       .  A
N889        C893   1.354       .  A
N889       Cu897   2.122       .  S
N890        C891   1.342       .  A
N890       Cu896   2.062       .  S
C891        C892   1.379       .  A
C891        H894   1.082       .  S
C892        C893   1.396       .  A
C892       C2100   1.494       .  S
C893        H895   1.082       .  S
Cu896       N899   2.062       .  S
Cu897       N907   2.122       .  S
Cu898       N900   2.067       .  S
Cu898       N906   2.068       .  S
N899        N900   1.319       .  A
N899        C903   1.344       .  A
N900        C901   1.345       .  A
C901        C902   1.384       .  A
C901        H904   1.082       .  S
C902        C903   1.382       .  A
C902       C1022   1.469       .  S
C903        H905   1.082       .  S
N906        N907   1.325       .  A
N906        C910   1.343       .  A
N907        C908   1.355       .  A
C908        C909   1.393       .  A
C908        H911   1.082       .  S
C909        C910   1.378       .  A
C909       C2050   1.488       .  S
C910        H912   1.082       .  S
N913        N914   1.324       .  A
N913        C917   1.353       .  A
N913       Cu921   2.115       .  S
N914        C915   1.340       .  A
N914       Cu920   2.048       .  S
C915        C916   1.375       .  A
C915        H918   1.082       .  S
C916        C917   1.392       .  A
C916       C2113   1.483       .  S
C917        H919   1.082       .  S
Cu920       N923   2.047       .  S
Cu921       N931   2.116       .  S
Cu922       N924   2.058       .  S
Cu922       N930   2.060       .  S
N923        N924   1.318       .  A
N923        C927   1.342       .  A
N924        C925   1.342       .  A
C925        C926   1.383       .  A
C925        H928   1.082       .  S
C926        C927   1.380       .  A
C927        H929   1.082       .  S
N930        N931   1.324       .  A
N930        C934   1.342       .  A
N931        C932   1.353       .  A
C932        C933   1.392       .  A
C932        H935   1.082       .  S
C933        C934   1.377       .  A
C933       C2093   1.485       .  S
C934        H936   1.082       .  S
N937        N938   1.323       .  A
N937        C941   1.351       .  A
N937       Cu945   2.103       .  S
N938        C939   1.341       .  A
N938       Cu944   2.052       .  S
C939        C940   1.376       .  A
C939        H942   1.082       .  S
C940        C941   1.391       .  A
C940       C2083   1.481       .  S
C941        H943   1.082       .  S
Cu944       N947   2.053       .  S
Cu945       N955   2.104       .  S
Cu946       N948   2.064       .  S
Cu946       N954   2.065       .  S
N947        N948   1.319       .  A
N947        C951   1.341       .  A
N948        C949   1.345       .  A
C949        C950   1.384       .  A
C949        H952   1.082       .  S
C950        C951   1.380       .  A
C950       C1094   1.465       .  S
C951        H953   1.082       .  S
N954        N955   1.325       .  A
N954        C958   1.343       .  A
N955        C956   1.350       .  A
C956        C957   1.388       .  A
C956        H959   1.082       .  S
C957        C958   1.377       .  A
C957       C2123   1.479       .  S
C958        H960   1.082       .  S
N961        N962   1.321       .  A
N961        C965   1.343       .  A
N961       Cu969   2.071       .  S
N962        C963   1.348       .  A
N962       Cu968   2.087       .  S
C963        C964   1.392       .  A
C963        H966   1.081       .  S
C964        C965   1.386       .  A
C964       C2043   1.495       .  S
C965        H967   1.082       .  S
Cu968       N971   2.089       .  S
Cu969       N979   2.070       .  S
Cu970       N972   2.095       .  S
Cu970       N978   2.094       .  S
N971        N972   1.323       .  A
N971        C975   1.349       .  A
N972        C973   1.349       .  A
C973        C974   1.388       .  A
C973        H976   1.082       .  S
C974        C975   1.386       .  A
C975        H977   1.082       .  S
N978        N979   1.321       .  A
N978        C982   1.348       .  A
N979        C980   1.344       .  A
C980        C981   1.386       .  A
C980        H983   1.081       .  S
C981        C982   1.392       .  A
C981       C2030   1.496       .  S
C982        H984   1.081       .  S
N985        N986   1.320       .  A
N985        C989   1.343       .  A
N985       Cu993   2.071       .  S
N986        C987   1.351       .  A
N986       Cu992   2.103       .  S
C987        C988   1.397       .  A
C987        H990   1.081       .  S
C988        C989   1.388       .  A
C988       C2010   1.504       .  S
C989        H991   1.081       .  S
Cu992       N995   2.105       .  S
Cu993      N1003   2.073       .  S
Cu994       N996   2.115       .  S
Cu994      N1002   2.114       .  S
N995        N996   1.326       .  A
N995        C999   1.351       .  A
N996        C997   1.352       .  A
C997        C998   1.390       .  A
C997       H1000   1.082       .  S
C998        C999   1.388       .  A
C999       H1001   1.082       .  S
N1002      N1003   1.322       .  A
N1002      C1006   1.352       .  A
N1003      C1004   1.346       .  A
C1004      C1005   1.385       .  A
C1004      H1007   1.082       .  S
C1005      C1006   1.395       .  A
C1005      C2020   1.499       .  S
C1006      H1008   1.082       .  S
N1009      N1010   1.322       .  A
N1009      C1013   1.351       .  A
N1009     Cu1017   2.105       .  S
N1010      C1011   1.342       .  A
N1010     Cu1016   2.069       .  S
C1011      C1012   1.385       .  A
C1011      H1014   1.081       .  S
C1012      C1013   1.396       .  A
C1012      C2013   1.501       .  S
C1013      H1015   1.081       .  S
Cu1016     N1019   2.071       .  S
Cu1017     N1027   2.104       .  S
Cu1018     N1020   2.066       .  S
Cu1018     N1026   2.064       .  S
N1019      N1020   1.321       .  A
N1019      C1023   1.346       .  A
N1020      C1021   1.344       .  A
C1021      C1022   1.382   1_556  A
C1021      H1024   1.082   1_556  S
C1022      C1023   1.383   1_554  A
C1023      H1025   1.082   1_556  S
N1026      N1027   1.321       .  A
N1026      C1030   1.340       .  A
N1027      C1028   1.352       .  A
C1028      C1029   1.397       .  A
C1028      H1031   1.081       .  S
C1029      C1030   1.384       .  A
C1029      C2033   1.500       .  S
C1030      H1032   1.081       .  S
N1033      N1034   1.323       .  A
N1033      C1037   1.345       .  A
N1033     Cu1041   2.068       .  S
N1034      C1035   1.351       .  A
N1034     Cu1040   2.104       .  S
C1035      C1036   1.389       .  A
C1035      H1038   1.082       .  S
C1036      C1037   1.380       .  A
C1036      C1990   1.484       .  S
C1037      H1039   1.082       .  S
Cu1040     N1043   2.105       .  S
Cu1041     N1051   2.068       .  S
Cu1042     N1044   2.092       .  S
Cu1042     N1050   2.091       .  S
N1043      N1044   1.325       .  A
N1043      C1047   1.351       .  A
N1044      C1045   1.348       .  A
C1045      C1046   1.385       .  A
C1045      H1048   1.082       .  S
C1046      C1047   1.388       .  A
C1047      H1049   1.082       .  S
N1050      N1051   1.322       .  A
N1050      C1054   1.350       .  A
N1051      C1052   1.343       .  A
C1052      C1053   1.381       .  A
C1052      H1055   1.082       .  S
C1053      C1054   1.388       .  A
C1053      C2003   1.483       .  S
C1054      H1056   1.082       .  S
N1057      N1058   1.324       .  A
N1057      C1061   1.345       .  A
N1057     Cu1065   2.069       .  S
N1058      C1059   1.354       .  A
N1058     Cu1064   2.121       .  S
C1059      C1060   1.392       .  A
C1059      H1062   1.082       .  S
C1060      C1061   1.380       .  A
C1060      C1973   1.489       .  S
C1061      H1063   1.082       .  S
Cu1064     N1067   2.123       .  S
Cu1065     N1075   2.068       .  S
Cu1066     N1068   2.102       .  S
Cu1066     N1074   2.101       .  S
N1067      N1068   1.326       .  A
N1067      C1071   1.354       .  A
N1068      C1069   1.350       .  A
C1069      C1070   1.387       .  A
C1069      H1072   1.082       .  S
C1070      C1071   1.393       .  A
C1071      H1073   1.082       .  S
N1074      N1075   1.321       .  A
N1074      C1078   1.351       .  A
N1075      C1076   1.344       .  A
C1076      C1077   1.384       .  A
C1076      H1079   1.082       .  S
C1077      C1078   1.392       .  A
C1077      C1980   1.492       .  S
C1078      H1080   1.082       .  S
N1081      N1082   1.325       .  A
N1081      C1085   1.355       .  A
N1081     Cu1089   2.124       .  S
N1082      C1083   1.342       .  A
N1082     Cu1088   2.059       .  S
C1083      C1084   1.376       .  A
C1083      H1086   1.082       .  S
C1084      C1085   1.393       .  A
C1084      C1970   1.486       .  S
C1085      H1087   1.082       .  S
Cu1088     N1091   2.057       .  S
Cu1089     N1099   2.124       .  S
Cu1090     N1092   2.060       .  S
Cu1090     N1098   2.061       .  S
N1091      N1092   1.319       .  A
N1091      C1095   1.344       .  A
N1092      C1093   1.343       .  A
C1093      C1094   1.383       .  A
C1093      H1096   1.082       .  S
C1094      C1095   1.382       .  A
C1095      H1097   1.082       .  S
N1098      N1099   1.325       .  A
N1098      C1102   1.343       .  A
N1099      C1100   1.354       .  A
C1100      C1101   1.393       .  A
C1100      H1103   1.082       .  S
C1101      C1102   1.377       .  A
C1101      C1993   1.486       .  S
C1102      H1104   1.082       .  S
N1105      N1106   1.326       .  A
N1105      C1109   1.354       .  A
N1105     Cu1113   2.124       .  S
N1106      C1107   1.345       .  A
N1106     Cu1112   2.077       .  S
C1107      C1108   1.381       .  A
C1107      H1110   1.082       .  S
C1108      C1109   1.393       .  A
C1108      C2023   1.494       .  S
C1109      H1111   1.082       .  S
Cu1112     N1115   2.075       .  S
Cu1113     N1123   2.124       .  S
Cu1114     N1116   2.055       .  S
Cu1114     N1122   2.056       .  S
N1115      N1116   1.320       .  A
N1115      C1119   1.346       .  A
N1116      C1117   1.342       .  A
C1117      C1118   1.380       .  A
C1117      H1120   1.082       .  S
C1118      C1119   1.385       .  A
C1118      C1310   1.468   1_655  S
C1119      H1121   1.082       .  S
N1122      N1123   1.324       .  A
N1122      C1126   1.343       .  A
N1123      C1124   1.354       .  A
C1124      C1125   1.393       .  A
C1124      H1127   1.082       .  S
C1125      C1126   1.376       .  A
C1125      C1983   1.485       .  S
C1126      H1128   1.082       .  S
N1129      N1130   1.321       .  A
N1129      C1133   1.353       .  A
N1129     Cu1137   2.106       .  S
N1130      C1131   1.337       .  A
N1130     Cu1136   2.048       .  S
C1131      C1132   1.379       .  A
C1131      H1134   1.082       .  S
C1132      C1133   1.395       .  A
C1132      C2040   1.491       .  S
C1133      H1135   1.081       .  S
Cu1136     N1139   2.047       .  S
Cu1137     N1147   2.108       .  S
Cu1138     N1140   2.064       .  S
Cu1138     N1146   2.066       .  S
N1139      N1140   1.318       .  A
N1139      C1143   1.342       .  A
N1140      C1141   1.344       .  A
C1141      C1142   1.384       .  A
C1141      H1144   1.082       .  S
C1142      C1143   1.380       .  A
C1142      C1262   1.465       .  S
C1143      H1145   1.082       .  S
N1146      N1147   1.325       .  A
N1146      C1150   1.343       .  A
N1147      C1148   1.351       .  A
C1148      C1149   1.389       .  A
C1148      H1151   1.082       .  S
C1149      C1150   1.377       .  A
C1149      C2000   1.481       .  S
C1150      H1152   1.082       .  S
N1153      N1154   1.323       .  A
N1153      C1157   1.344       .  A
N1153     Cu1161   2.063       .  S
N1154      C1155   1.350       .  A
N1154     Cu1160   2.098       .  S
C1155      C1156   1.388       .  A
C1155      H1158   1.082       .  S
C1156      C1157   1.379       .  A
C1156      C1950   1.480       .  S
C1157      H1159   1.082       .  S
Cu1160     N1163   2.099       .  S
Cu1161     N1171   2.063       .  S
Cu1162     N1164   2.111       .  S
Cu1162     N1170   2.111       .  S
N1163      N1164   1.326       .  A
N1163      C1167   1.351       .  A
N1164      C1165   1.350       .  A
C1165      C1166   1.389       .  A
C1165      H1168   1.082       .  S
C1166      C1167   1.387       .  A
C1167      H1169   1.082       .  S
N1170      N1171   1.323       .  A
N1170      C1174   1.352       .  A
N1171      C1172   1.344       .  A
C1172      C1173   1.379       .  A
C1172      H1175   1.082       .  S
C1173      C1174   1.391       .  A
C1173      C1963   1.485       .  S
C1174      H1176   1.082       .  S
N1177      N1178   1.323       .  A
N1177      C1181   1.344       .  A
N1177     Cu1185   2.062       .  S
N1178      C1179   1.354       .  A
N1178     Cu1184   2.118       .  S
C1179      C1180   1.392       .  A
C1179      H1182   1.082       .  S
C1180      C1181   1.378       .  A
C1180      C1930   1.485       .  S
C1181      H1183   1.082       .  S
Cu1184     N1187   2.120       .  S
Cu1185     N1195   2.062       .  S
Cu1186     N1188   2.104       .  S
Cu1186     N1194   2.103       .  S
N1187      N1188   1.326       .  A
N1187      C1191   1.354       .  A
N1188      C1189   1.350       .  A
C1189      C1190   1.387       .  A
C1189      H1192   1.082       .  S
C1190      C1191   1.391       .  A
C1191      H1193   1.082       .  S
N1194      N1195   1.322       .  A
N1194      C1198   1.351       .  A
N1195      C1196   1.344       .  A
C1196      C1197   1.380       .  A
C1196      H1199   1.082       .  S
C1197      C1198   1.391       .  A
C1197      C1943   1.485       .  S
C1198      H1200   1.082       .  S
N1201      N1202   1.322       .  A
N1201      C1205   1.344       .  A
N1201     Cu1209   2.067       .  S
N1202      C1203   1.350       .  A
N1202     Cu1208   2.100       .  S
C1203      C1204   1.390       .  A
C1203      H1206   1.082       .  S
C1204      C1205   1.381       .  A
C1204      C1920   1.486       .  S
C1205      H1207   1.082       .  S
Cu1208     N1211   2.100       .  S
Cu1209     N1219   2.067       .  S
Cu1210     N1212   2.095       .  S
Cu1210     N1218   2.094       .  S
N1211      N1212   1.325       .  A
N1211      C1215   1.349       .  A
N1212      C1213   1.349       .  A
C1213      C1214   1.387       .  A
C1213      H1216   1.082       .  S
C1214      C1215   1.387       .  A
C1215      H1217   1.082       .  S
N1218      N1219   1.322       .  A
N1218      C1222   1.349       .  A
N1219      C1220   1.344       .  A
C1220      C1221   1.382       .  A
C1220      H1223   1.082       .  S
C1221      C1222   1.389       .  A
C1221      C1910   1.485       .  S
C1222      H1224   1.082       .  S
N1225      N1226   1.322       .  A
N1225      C1229   1.344       .  A
N1225     Cu1233   2.061       .  S
N1226      C1227   1.348       .  A
N1226     Cu1232   2.095       .  S
C1227      C1228   1.389       .  A
C1227      H1230   1.082       .  S
C1228      C1229   1.382       .  A
C1228      C1900   1.486       .  S
C1229      H1231   1.082       .  S
Cu1232     N1235   2.096       .  S
Cu1233     N1243   2.061       .  S
Cu1234     N1236   2.093       .  S
Cu1234     N1242   2.093       .  S
N1235      N1236   1.324       .  A
N1235      C1239   1.349       .  A
N1236      C1237   1.349       .  A
C1237      C1238   1.386       .  A
C1237      H1240   1.082       .  S
C1238      C1239   1.387       .  A
C1239      H1241   1.082       .  S
N1242      N1243   1.322       .  A
N1242      C1246   1.349       .  A
N1243      C1244   1.343       .  A
C1244      C1245   1.379       .  A
C1244      H1247   1.082       .  S
C1245      C1246   1.387       .  A
C1245      C1890   1.477       .  S
C1246      H1248   1.082       .  S
N1249      N1250   1.325       .  A
N1249      C1253   1.352       .  A
N1249     Cu1257   2.115       .  S
N1250      C1251   1.343       .  A
N1250     Cu1256   2.067       .  S
C1251      C1252   1.379       .  A
C1251      H1254   1.082       .  S
C1252      C1253   1.392       .  A
C1252      C1923   1.489       .  S
C1253      H1255   1.082       .  S
Cu1256     N1259   2.065       .  S
Cu1257     N1267   2.114       .  S
Cu1258     N1260   2.045       .  S
Cu1258     N1266   2.045       .  S
N1259      N1260   1.318       .  A
N1259      C1263   1.344       .  A
N1260      C1261   1.341       .  A
C1261      C1262   1.379       .  A
C1261      H1264   1.082       .  S
C1262      C1263   1.384       .  A
C1263      H1265   1.082       .  S
N1266      N1267   1.323       .  A
N1266      C1270   1.339       .  A
N1267      C1268   1.353       .  A
C1268      C1269   1.392       .  A
C1268      H1271   1.082       .  S
C1269      C1270   1.373       .  A
C1269      C1893   1.478       .  S
C1270      H1272   1.082       .  S
N1273      N1274   1.324       .  A
N1273      C1277   1.352       .  A
N1273     Cu1281   2.108       .  S
N1274      C1275   1.342       .  A
N1274     Cu1280   2.063       .  S
C1275      C1276   1.380       .  A
C1275      H1278   1.082       .  S
C1276      C1277   1.392       .  A
C1276      C1940   1.489       .  S
C1277      H1279   1.082       .  S
Cu1280     N1283   2.062       .  S
Cu1281     N1291   2.108       .  S
Cu1282     N1284   2.054       .  S
Cu1282     N1290   2.055       .  S
N1283      N1284   1.319       .  A
N1283      C1287   1.343       .  A
N1284      C1285   1.343       .  A
C1285      C1286   1.381   1_545  A
C1285      H1288   1.082       .  S
C1286      C1287   1.383   1_565  A
C1286      C1502   1.465       .  S
C1287      H1289   1.082       .  S
N1290      N1291   1.323       .  A
N1290      C1294   1.341       .  A
N1291      C1292   1.352       .  A
C1292      C1293   1.391       .  A
C1292      H1295   1.082       .  S
C1293      C1294   1.377       .  A
C1293      C1913   1.483       .  S
C1294      H1296   1.082       .  S
N1297      N1298   1.325       .  A
N1297      C1301   1.354       .  A
N1297     Cu1305   2.116       .  S
N1298      C1299   1.343       .  A
N1298     Cu1304   2.066       .  S
C1299      C1300   1.376       .  A
C1299      H1302   1.082       .  S
C1300      C1301   1.391       .  A
C1300      C1933   1.483       .  S
C1301      H1303   1.082       .  S
Cu1304     N1307   2.066       .  S
Cu1305     N1315   2.115       .  S
Cu1306     N1308   2.056       .  S
Cu1306     N1314   2.057       .  S
N1307      N1308   1.319       .  A
N1307      C1311   1.344       .  A
N1308      C1309   1.344       .  A
C1309      C1310   1.382       .  A
C1309      H1312   1.082       .  S
C1310      C1311   1.384       .  A
C1311      H1313   1.082       .  S
N1314      N1315   1.324       .  A
N1314      C1318   1.340       .  A
N1315      C1316   1.354       .  A
C1316      C1317   1.391       .  A
C1316      H1319   1.082       .  S
C1317      C1318   1.375       .  A
C1317      C1953   1.481       .  S
C1318      H1320   1.082       .  S
N1321      N1322   1.322       .  A
N1321      C1325   1.351       .  A
N1321     Cu1329   2.103       .  S
N1322      C1323   1.342       .  A
N1322     Cu1328   2.056       .  S
C1323      C1324   1.378       .  A
C1323      H1326   1.082       .  S
C1324      C1325   1.391       .  A
C1324      C1903   1.482       .  S
C1325      H1327   1.082       .  S
Cu1328     N1331   2.056       .  S
Cu1329     N1339   2.105       .  S
Cu1330     N1332   2.083       .  S
Cu1330     N1338   2.084       .  S
N1331      N1332   1.321       .  A
N1331      C1335   1.342       .  A
N1332      C1333   1.348       .  A
C1333      C1334   1.387       .  A
C1333      H1336   1.081       .  S
C1334      C1335   1.380       .  A
C1334      C1430   1.471       .  S
C1335      H1337   1.082       .  S
N1338      N1339   1.325       .  A
N1338      C1342   1.347       .  A
N1339      C1340   1.350       .  A
C1340      C1341   1.388       .  A
C1340      H1343   1.082       .  S
C1341      C1342   1.382       .  A
C1341      C1960   1.488       .  S
C1342      H1344   1.082       .  S
N1345      N1346   1.322       .  A
N1345      C1349   1.344       .  A
N1345     Cu1353   2.063       .  S
N1346      C1347   1.350       .  A
N1346     Cu1352   2.098       .  S
C1347      C1348   1.389       .  A
C1347      H1350   1.082       .  S
C1348      C1349   1.381       .  A
C1348      C1880   1.485       .  S
C1349      H1351   1.082       .  S
Cu1352     N1355   2.099       .  S
Cu1353     N1363   2.063       .  S
Cu1354     N1356   2.110       .  S
Cu1354     N1362   2.109       .  S
N1355      N1356   1.326       .  A
N1355      C1359   1.350       .  A
N1356      C1357   1.351       .  A
C1357      C1358   1.389       .  A
C1357      H1360   1.082       .  S
C1358      C1359   1.387       .  A
C1359      H1361   1.082       .  S
N1362      N1363   1.323       .  A
N1362      C1366   1.352       .  A
N1363      C1364   1.344       .  A
C1364      C1365   1.381       .  A
C1364      H1367   1.082       .  S
C1365      C1366   1.392       .  A
C1365      C1870   1.490       .  S
C1366      H1368   1.082       .  S
N1369      N1370   1.324       .  A
N1369      C1373   1.347       .  A
N1369     Cu1377   2.082       .  S
N1370      C1371   1.352       .  A
N1370     Cu1376   2.110       .  S
C1371      C1372   1.390       .  A
C1371      H1374   1.082       .  S
C1372      C1373   1.382       .  A
C1372      C1850   1.489       .  S
C1373      H1375   1.082       .  S
Cu1376     N1379   2.110       .  S
Cu1377     N1387   2.081       .  S
Cu1378     N1380   2.095       .  S
Cu1378     N1386   2.094       .  S
N1379      N1380   1.325       .  A
N1379      C1383   1.351       .  A
N1380      C1381   1.349       .  A
C1381      C1382   1.386       .  A
C1381      H1384   1.082       .  S
C1382      C1383   1.390       .  A
C1383      H1385   1.082       .  S
N1386      N1387   1.322       .  A
N1386      C1390   1.349       .  A
N1387      C1388   1.346       .  A
C1388      C1389   1.387       .  A
C1388      H1391   1.082       .  S
C1389      C1390   1.391       .  A
C1389      C1863   1.497       .  S
C1390      H1392   1.082       .  S
N1393      N1394   1.320       .  A
N1393      C1397   1.343       .  A
N1393     Cu1401   2.074       .  S
N1394      C1395   1.350       .  A
N1394     Cu1400   2.092       .  S
C1395      C1396   1.394       .  A
C1395      H1398   1.081       .  S
C1396      C1397   1.387       .  A
C1396      C1830   1.500       .  S
C1397      H1399   1.082       .  S
Cu1400     N1403   2.093       .  S
Cu1401     N1411   2.075       .  S
Cu1402     N1404   2.112       .  S
Cu1402     N1410   2.111       .  S
N1403      N1404   1.326       .  A
N1403      C1407   1.349       .  A
N1404      C1405   1.351       .  A
C1405      C1406   1.390       .  A
C1405      H1408   1.082       .  S
C1406      C1407   1.385       .  A
C1407      H1409   1.082       .  S
N1410      N1411   1.323       .  A
N1410      C1414   1.353       .  A
N1411      C1412   1.345       .  A
C1412      C1413   1.382       .  A
C1412      H1415   1.082       .  S
C1413      C1414   1.392       .  A
C1413      C1840   1.490       .  S
C1414      H1416   1.082       .  S
N1417      N1418   1.325       .  A
N1417      C1421   1.355       .  A
N1417     Cu1425   2.126       .  S
N1418      C1419   1.344       .  A
N1418     Cu1424   2.070       .  S
C1419      C1420   1.378       .  A
C1419      H1422   1.082       .  S
C1420      C1421   1.394       .  A
C1420      C1853   1.489       .  S
C1421      H1423   1.082       .  S
Cu1424     N1427   2.069       .  S
Cu1425     N1435   2.126       .  S
Cu1426     N1428   2.062       .  S
Cu1426     N1434   2.061       .  S
N1427      N1428   1.319       .  A
N1427      C1431   1.344       .  A
N1428      C1429   1.346       .  A
C1429      C1430   1.383       .  A
C1429      H1432   1.082       .  S
C1430      C1431   1.385       .  A
C1431      H1433   1.081       .  S
N1434      N1435   1.323       .  A
N1434      C1438   1.341       .  A
N1435      C1436   1.354       .  A
C1436      C1437   1.400       .  A
C1436      H1439   1.081       .  S
C1437      C1438   1.383       .  A
C1437      C1833   1.503       .  S
C1438      H1440   1.081       .  S
N1441      N1442   1.324       .  A
N1441      C1445   1.353       .  A
N1441     Cu1449   2.116       .  S
N1442      C1443   1.342       .  A
N1442     Cu1448   2.062       .  S
C1443      C1444   1.377       .  A
C1443      H1446   1.082       .  S
C1444      C1445   1.391       .  A
C1444      C1883   1.483       .  S
C1445      H1447   1.082       .  S
Cu1448     N1451   2.062       .  S
Cu1449     N1459   2.117       .  S
Cu1450     N1452   2.069       .  S
Cu1450     N1458   2.070       .  S
N1451      N1452   1.320       .  A
N1451      C1455   1.343       .  A
N1452      C1453   1.345       .  A
C1453      C1454   1.384       .  A
C1453      H1456   1.082       .  S
C1454      C1455   1.383       .  A
C1454      C1598   1.470   1_556  S
C1455      H1457   1.082       .  S
N1458      N1459   1.325       .  A
N1458      C1462   1.345       .  A
N1459      C1460   1.352       .  A
C1460      C1461   1.391       .  A
C1460      H1463   1.082       .  S
C1461      C1462   1.379       .  A
C1461      C1843   1.487       .  S
C1462      H1464   1.082       .  S
N1465      N1466   1.322       .  A
N1465      C1469   1.344       .  A
N1465     Cu1473   2.065       .  S
N1466      C1467   1.354       .  A
N1466     Cu1472   2.115       .  S
C1467      C1468   1.394       .  A
C1467      H1470   1.082       .  S
C1468      C1469   1.381       .  A
C1468      C1823   1.491       .  S
C1469      H1471   1.082       .  S
Cu1472     N1475   2.117       .  S
Cu1473     N1483   2.065       .  S
Cu1474     N1476   2.112       .  S
Cu1474     N1482   2.111       .  S
N1475      N1476   1.327       .  A
N1475      C1479   1.351       .  A
N1476      C1477   1.353       .  A
C1477      C1478   1.389       .  A
C1477      H1480   1.082       .  S
C1478      C1479   1.390       .  A
C1479      H1481   1.082       .  S
N1482      N1483   1.322       .  A
N1482      C1486   1.353       .  A
N1483      C1484   1.344       .  A
C1484      C1485   1.381       .  A
C1484      H1487   1.082       .  S
C1485      C1486   1.393       .  A
C1485      C1810   1.491       .  S
C1486      H1488   1.082       .  S
N1489      N1490   1.324       .  A
N1489      C1493   1.355       .  A
N1489     Cu1497   2.124       .  S
N1490      C1491   1.341       .  A
N1490     Cu1496   2.053       .  S
C1491      C1492   1.375       .  A
C1491      H1494   1.082       .  S
C1492      C1493   1.394       .  A
C1492      C1813   1.486       .  S
C1493      H1495   1.082       .  S
Cu1496     N1499   2.052       .  S
Cu1497     N1507   2.125       .  S
Cu1498     N1500   2.062       .  S
Cu1498     N1506   2.063       .  S
N1499      N1500   1.319       .  A
N1499      C1503   1.342       .  A
N1500      C1501   1.344       .  A
C1501      C1502   1.384       .  A
C1501      H1504   1.082       .  S
C1502      C1503   1.381       .  A
C1503      H1505   1.082       .  S
N1506      N1507   1.325       .  A
N1506      C1510   1.342       .  A
N1507      C1508   1.355       .  A
C1508      C1509   1.393       .  A
C1508      H1511   1.082       .  S
C1509      C1510   1.376       .  A
C1509      C1873   1.486       .  S
C1510      H1512   1.082       .  S
N1513      N1514   1.326       .  A
N1513      C1517   1.353       .  A
N1513     Cu1521   2.123       .  S
N1514      C1515   1.346       .  A
N1514     Cu1520   2.076       .  S
C1515      C1516   1.380       .  A
C1515      H1518   1.082       .  S
C1516      C1517   1.392       .  A
C1516      C1820   1.491       .  S
C1517      H1519   1.082       .  S
Cu1520     N1523   2.074       .  S
Cu1521     N1531   2.122       .  S
Cu1522     N1524   2.052       .  S
Cu1522     N1530   2.052       .  S
N1523      N1524   1.319       .  A
N1523      C1527   1.346       .  A
N1524      C1525   1.341       .  A
C1525      C1526   1.380       .  A
C1525      H1528   1.082       .  S
C1526      C1527   1.387       .  A
C1526      C1670   1.468       .  S
C1527      H1529   1.081       .  S
N1530      N1531   1.323       .  A
N1530      C1534   1.341       .  A
N1531      C1532   1.355       .  A
C1532      C1533   1.395       .  A
C1532      H1535   1.082       .  S
C1533      C1534   1.376       .  A
C1533      C1860   1.485       .  S
C1534      H1536   1.082       .  S
N1537      N1538   1.322       .  A
N1537      C1541   1.342       .  A
N1537     Cu1545   2.059       .  S
N1538      C1539   1.352       .  A
N1538     Cu1544   2.105       .  S
C1539      C1540   1.393       .  A
C1539      H1542   1.082       .  S
C1540      C1541   1.380       .  A
C1540      C1803   1.488       .  S
C1541      H1543   1.082       .  S
Cu1544     N1547   2.106       .  S
Cu1545     N1555   2.059       .  S
Cu1546     N1548   2.095       .  S
Cu1546     N1554   2.094       .  S
N1547      N1548   1.326       .  A
N1547      C1551   1.350       .  A
N1548      C1549   1.348       .  A
C1549      C1550   1.385       .  A
C1549      H1552   1.082       .  S
C1550      C1551   1.388       .  A
C1551      H1553   1.082       .  S
N1554      N1555   1.321       .  A
N1554      C1558   1.350       .  A
N1555      C1556   1.342       .  A
C1556      C1557   1.381       .  A
C1556      H1559   1.082       .  S
C1557      C1558   1.391       .  A
C1557      C1790   1.485       .  S
C1558      H1560   1.082       .  S
N1561      N1562   1.321       .  A
N1561      C1565   1.343       .  A
N1561     Cu1569   2.059       .  S
N1562      C1563   1.349       .  A
N1562     Cu1568   2.089       .  S
C1563      C1564   1.389       .  A
C1563      H1566   1.082       .  S
C1564      C1565   1.381       .  A
C1564      C1780   1.483       .  S
C1565      H1567   1.082       .  S
Cu1568     N1571   2.091       .  S
Cu1569     N1579   2.058       .  S
Cu1570     N1572   2.104       .  S
Cu1570     N1578   2.102       .  S
N1571      N1572   1.326       .  A
N1571      C1575   1.348       .  A
N1572      C1573   1.350       .  A
C1573      C1574   1.388       .  A
C1573      H1576   1.082       .  S
C1574      C1575   1.384       .  A
C1575      H1577   1.082       .  S
N1578      N1579   1.321       .  A
N1578      C1582   1.352       .  A
N1579      C1580   1.340       .  A
C1580      C1581   1.383       .  A
C1580      H1583   1.082       .  S
C1581      C1582   1.395       .  A
C1581      C1770   1.495       .  S
C1582      H1584   1.081       .  S
N1585      N1586   1.324       .  A
N1585      C1589   1.351       .  A
N1585     Cu1593   2.102       .  S
N1586      C1587   1.341       .  A
N1586     Cu1592   2.060       .  S
C1587      C1588   1.377       .  A
C1587      H1590   1.082       .  S
C1588      C1589   1.389       .  A
C1588      C1793   1.480       .  S
C1589      H1591   1.082       .  S
Cu1592     N1595   2.059       .  S
Cu1593     N1603   2.102       .  S
Cu1594     N1596   2.066       .  S
Cu1594     N1602   2.067       .  S
N1595      N1596   1.319       .  A
N1595      C1599   1.343       .  A
N1596      C1597   1.345       .  A
C1597      C1598   1.384       .  A
C1597      H1600   1.082       .  S
C1598      C1599   1.383       .  A
C1599      H1601   1.082       .  S
N1602      N1603   1.323       .  A
N1602      C1606   1.342       .  A
N1603      C1604   1.351       .  A
C1604      C1605   1.392       .  A
C1604      H1607   1.082       .  S
C1605      C1606   1.382       .  A
C1605      C1773   1.492       .  S
C1606      H1608   1.082       .  S
N1609      N1610   1.322       .  A
N1609      C1613   1.343       .  A
N1609     Cu1617   2.051       .  S
N1610      C1611   1.352       .  A
N1610     Cu1616   2.111       .  S
C1611      C1612   1.392       .  A
C1611      H1614   1.082       .  S
C1612      C1613   1.377       .  A
C1612      C1753   1.483       .  S
C1613      H1615   1.082       .  S
Cu1616     N1619   2.114       .  S
Cu1617     N1627   2.052       .  S
Cu1618     N1620   2.115       .  S
Cu1618     N1626   2.114       .  S
N1619      N1620   1.327       .  A
N1619      C1623   1.351       .  A
N1620      C1621   1.353       .  A
C1621      C1622   1.390       .  A
C1621      H1624   1.082       .  S
C1622      C1623   1.390       .  A
C1623      H1625   1.082       .  S
N1626      N1627   1.322       .  A
N1626      C1630   1.353       .  A
N1627      C1628   1.342       .  A
C1628      C1629   1.376       .  A
C1628      H1631   1.082       .  S
C1629      C1630   1.392       .  A
C1629      C1760   1.482       .  S
C1630      H1632   1.082       .  S
N1633      N1634   1.320       .  A
N1633      C1637   1.339       .  A
N1633     Cu1641   2.052       .  S
N1634      C1635   1.350       .  A
N1634     Cu1640   2.091       .  S
C1635      C1636   1.392       .  A
C1635      H1638   1.082       .  S
C1636      C1637   1.381       .  A
C1636      C1740   1.488       .  S
C1637      H1639   1.082       .  S
Cu1640     N1643   2.093       .  S
Cu1641     N1651   2.053       .  S
Cu1642     N1644   2.094       .  S
Cu1642     N1650   2.092       .  S
N1643      N1644   1.326       .  A
N1643      C1647   1.347       .  A
N1644      C1645   1.348       .  A
C1645      C1646   1.386       .  A
C1645      H1648   1.082       .  S
C1646      C1647   1.384       .  A
C1647      H1649   1.082       .  S
N1650      N1651   1.321       .  A
N1650      C1654   1.350       .  A
N1651      C1652   1.341       .  A
C1652      C1653   1.378       .  A
C1652      H1655   1.082       .  S
C1653      C1654   1.389       .  A
C1653      C1730   1.478       .  S
C1654      H1656   1.082       .  S
N1657      N1658   1.322       .  A
N1657      C1661   1.351       .  A
N1657     Cu1665   2.105       .  S
N1658      C1659   1.339       .  A
N1658     Cu1664   2.054       .  S
C1659      C1660   1.380       .  A
C1659      H1662   1.082       .  S
C1660      C1661   1.393       .  A
C1660      C1743   1.490       .  S
C1661      H1663   1.082       .  S
Cu1664     N1667   2.054       .  S
Cu1665     N1675   2.106       .  S
Cu1666     N1668   2.062       .  S
Cu1666     N1674   2.064       .  S
N1667      N1668   1.319       .  A
N1667      C1671   1.344       .  A
N1668      C1669   1.342       .  A
C1669      C1670   1.384       .  A
C1669      H1672   1.082       .  S
C1670      C1671   1.382       .  A
C1671      H1673   1.082       .  S
N1674      N1675   1.324       .  A
N1674      C1678   1.342       .  A
N1675      C1676   1.351       .  A
C1676      C1677   1.390       .  A
C1676      H1679   1.082       .  S
C1677      C1678   1.379       .  A
C1677      C1750   1.485       .  S
C1678      H1680   1.082       .  S
N1681      N1682   1.325       .  A
N1681      C1685   1.351       .  A
N1681     Cu1689   2.103       .  S
N1682      C1683   1.341       .  A
N1682     Cu1688   2.059       .  S
C1683      C1684   1.375       .  A
C1683      H1686   1.082       .  S
C1684      C1685   1.388       .  A
C1684      C1733   1.475       .  S
C1685      H1687   1.082       .  S
Cu1688     N1691   2.058       .  S
Cu1689     N1699   2.102       .  S
Cu1690     N1692   2.061       .  S
Cu1690     N1698   2.061       .  S
N1691      N1692   1.319       .  A
N1691      C1695   1.344       .  A
N1692      C1693   1.343       .  A
C1693      C1694   1.383       .  A
C1693      H1696   1.082       .  S
C1694      C1695   1.383       .  A
C1695      H1697   1.081       .  S
N1698      N1699   1.324       .  A
N1698      C1702   1.340       .  A
N1699      C1700   1.352       .  A
C1700      C1701   1.389       .  A
C1700      H1703   1.082       .  S
C1701      C1702   1.376       .  A
C1701      C1783   1.478       .  S
C1702      H1704   1.082       .  S
N1705      N1706   1.325       .  A
N1705      C1709   1.355       .  A
N1705     Cu1713   2.123       .  S
N1706      C1707   1.340       .  A
N1706     Cu1712   2.058       .  S
C1707      C1708   1.375       .  A
C1707      H1710   1.082       .  S
C1708      C1709   1.393       .  A
C1708      C1800   1.485       .  S
C1709      H1711   1.082       .  S
Cu1712     N1715   2.057       .  S
Cu1713     N1723   2.122       .  S
Cu1714     N1716   2.048       .  S
Cu1714     N1722   2.049       .  S
N1715      N1716   1.318       .  A
N1715      C1719   1.345       .  A
N1716      C1717   1.340       .  A
C1717      C1718   1.381       .  A
C1717      H1720   1.082       .  S
C1718      C1719   1.384       .  A
C1719      H1721   1.082       .  S
N1722      N1723   1.323       .  A
N1722      C1726   1.339       .  A
N1723      C1724   1.355       .  A
C1724      C1725   1.395       .  A
C1724      H1727   1.082       .  S
C1725      C1726   1.376       .  A
C1725      C1763   1.488       .  S
C1726      H1728   1.082       .  S
C1729      C1730   1.410       .  A
C1729      C1734   1.409       .  A
C1729     Br1736   1.928       .  S
C1730      C1731   1.411       .  A
C1731      C1732   1.407       .  A
C1731     Br1738   1.931       .  S
C1732      C1733   1.408       .  A
C1732     Br1737   1.930       .  S
C1733      C1734   1.408       .  A
C1734     Br1735   1.929       .  S
C1739      C1740   1.414       .  A
C1739      C1744   1.409       .  A
C1739     Br1746   1.933       .  S
C1740      C1741   1.411       .  A
C1741      C1742   1.410       .  A
C1741     Br1748   1.932       .  S
C1742      C1743   1.417       .  A
C1742     Br1747   1.934       .  S
C1743      C1744   1.412       .  A
C1744     Br1745   1.931       .  S
C1749      C1750   1.412       .  A
C1749      C1754   1.411       .  A
C1749     Br1756   1.930       .  S
C1750      C1751   1.412       .  A
C1751      C1752   1.410       .  A
C1751     Br1758   1.931       .  S
C1752      C1753   1.409       .  A
C1752     Br1757   1.930       .  S
C1753      C1754   1.411       .  A
C1754     Br1755   1.929       .  S
C1759      C1760   1.408       .  A
C1759      C1764   1.409       .  A
C1759     Br1766   1.931       .  S
C1760      C1761   1.410       .  A
C1761      C1762   1.413       .  A
C1761     Br1768   1.928       .  S
C1762      C1763   1.412       .  A
C1762     Br1767   1.928       .  S
C1763      C1764   1.415       .  A
C1764     Br1765   1.932       .  S
C1769      C1770   1.417       .  A
C1769      C1774   1.410       .  A
C1769     Br1776   1.934       .  S
C1770      C1771   1.414       .  A
C1771      C1772   1.411       .  A
C1771     Br1778   1.931       .  S
C1772      C1773   1.415       .  A
C1772     Br1777   1.933       .  S
C1773      C1774   1.412       .  A
C1774     Br1775   1.932       .  S
C1779      C1780   1.413       .  A
C1779      C1784   1.411       .  A
C1779     Br1786   1.929       .  S
C1780      C1781   1.413       .  A
C1781      C1782   1.407       .  A
C1781     Br1788   1.931       .  S
C1782      C1783   1.408       .  A
C1782     Br1787   1.931       .  S
C1783      C1784   1.408       .  A
C1784     Br1785   1.928       .  S
C1789      C1790   1.414       .  A
C1789      C1794   1.409       .  A
C1789     Br1796   1.931       .  S
C1790      C1791   1.412       .  A
C1791      C1792   1.410       .  A
C1791     Br1798   1.930       .  S
C1792      C1793   1.410       .  A
C1792     Br1797   1.931       .  S
C1793      C1794   1.408       .  A
C1794     Br1795   1.930       .  S
C1799      C1800   1.412       .  A
C1799      C1804   1.411       .  A
C1799     Br1806   1.930       .  S
C1800      C1801   1.409       .  A
C1801      C1802   1.411       .  A
C1801     Br1808   1.930       .  S
C1802      C1803   1.415       .  A
C1802     Br1807   1.932       .  S
C1803      C1804   1.411       .  A
C1804     Br1805   1.930       .  S
C1809      C1810   1.412       .  A
C1809      C1814   1.412       .  A
C1809     Br1816   1.929       .  S
C1810      C1811   1.414       .  A
C1811      C1812   1.412       .  A
C1811     Br1818   1.931       .  S
C1812      C1813   1.409       .  A
C1812     Br1817   1.929       .  S
C1813      C1814   1.412       .  A
C1814     Br1815   1.930       .  S
C1819      C1820   1.410       .  A
C1819      C1824   1.412       .  A
C1819     Br1826   1.930       .  S
C1820      C1821   1.413       .  A
C1821      C1822   1.414       .  A
C1821     Br1828   1.929       .  S
C1822      C1823   1.411       .  A
C1822     Br1827   1.929       .  S
C1823      C1824   1.413       .  A
C1824     Br1825   1.930       .  S
C1829      C1830   1.415       .  A
C1829      C1834   1.413       .  A
C1829     Br1836   1.932       .  S
C1830      C1831   1.416       .  A
C1831      C1832   1.412       .  A
C1831     Br1838   1.933       .  S
C1832      C1833   1.415       .  A
C1832     Br1837   1.929       .  S
C1833      C1834   1.420       .  A
C1834     Br1835   1.935       .  S
C1839      C1840   1.412       .  A
C1839      C1844   1.414       .  A
C1839     Br1846   1.928       .  S
C1840      C1841   1.413       .  A
C1841      C1842   1.412       .  A
C1841     Br1848   1.929       .  S
C1842      C1843   1.410       .  A
C1842     Br1847   1.930       .  S
C1843      C1844   1.411       .  A
C1844     Br1845   1.929       .  S
C1849      C1850   1.411       .  A
C1849      C1854   1.415       .  A
C1849     Br1856   1.928       .  S
C1850      C1851   1.411       .  A
C1851      C1852   1.412       .  A
C1851     Br1858   1.929       .  S
C1852      C1853   1.410       .  A
C1852     Br1857   1.929       .  S
C1853      C1854   1.412       .  A
C1854     Br1855   1.928       .  S
C1859      C1860   1.408       .  A
C1859      C1864   1.412       .  A
C1859     Br1866   1.931       .  S
C1860      C1861   1.410       .  A
C1861      C1862   1.413       .  A
C1861     Br1868   1.930       .  S
C1862      C1863   1.417       .  A
C1862     Br1867   1.931       .  S
C1863      C1864   1.417       .  A
C1864     Br1865   1.931       .  S
C1869      C1870   1.416       .  A
C1869      C1874   1.412       .  A
C1869     Br1876   1.932       .  S
C1870      C1871   1.411       .  A
C1871      C1872   1.411       .  A
C1871     Br1878   1.930       .  S
C1872      C1873   1.411       .  A
C1872     Br1877   1.929       .  S
C1873      C1874   1.409       .  A
C1874     Br1875   1.930       .  S
C1879      C1880   1.414       .  A
C1879      C1884   1.410       .  A
C1879     Br1886   1.931       .  S
C1880      C1881   1.410       .  A
C1881      C1882   1.411       .  A
C1881     Br1888   1.929       .  S
C1882      C1883   1.411       .  A
C1882     Br1887   1.929       .  S
C1883      C1884   1.409       .  A
C1884     Br1885   1.930       .  S
C1889      C1890   1.409       .  A
C1889      C1894   1.408       .  A
C1889     Br1896   1.931       .  S
C1890      C1891   1.408       .  A
C1891      C1892   1.410       .  A
C1891     Br1898   1.928       .  S
C1892      C1893   1.410       .  A
C1892     Br1897   1.928       .  S
C1893      C1894   1.411       .  A
C1894     Br1895   1.930       .  S
C1899      C1900   1.415       .  A
C1899      C1904   1.410       .  A
C1899     Br1906   1.932       .  S
C1900      C1901   1.411       .  A
C1901      C1902   1.410       .  A
C1901     Br1908   1.930       .  S
C1902      C1903   1.411       .  A
C1902     Br1907   1.930       .  S
C1903      C1904   1.410       .  A
C1904     Br1905   1.932       .  S
C1909      C1910   1.411       .  A
C1909      C1914   1.410       .  A
C1909     Br1916   1.930       .  S
C1910      C1911   1.414       .  A
C1911      C1912   1.410       .  A
C1911     Br1918   1.931       .  S
C1912      C1913   1.410       .  A
C1912     Br1917   1.931       .  S
C1913      C1914   1.412       .  A
C1914     Br1915   1.931       .  S
C1919      C1920   1.413       .  A
C1919      C1924   1.411       .  A
C1919     Br1926   1.932       .  S
C1920      C1921   1.410       .  A
C1921      C1922   1.411       .  A
C1921     Br1928   1.930       .  S
C1922      C1923   1.415       .  A
C1922     Br1927   1.931       .  S
C1923      C1924   1.412       .  A
C1924     Br1925   1.930       .  S
C1929      C1930   1.411       .  A
C1929      C1934   1.412       .  A
C1929     Br1936   1.929       .  S
C1930      C1931   1.410       .  A
C1931      C1932   1.412       .  A
C1931     Br1938   1.927       .  S
C1932      C1933   1.410       .  A
C1932     Br1937   1.929       .  S
C1933      C1934   1.410       .  A
C1934     Br1935   1.929       .  S
C1939      C1940   1.415       .  A
C1939      C1944   1.410       .  A
C1939     Br1946   1.933       .  S
C1940      C1941   1.412       .  A
C1941      C1942   1.412       .  A
C1941     Br1948   1.930       .  S
C1942      C1943   1.412       .  A
C1942     Br1947   1.929       .  S
C1943      C1944   1.409       .  A
C1944     Br1945   1.931       .  S
C1949      C1950   1.409       .  A
C1949      C1954   1.408       .  A
C1949     Br1956   1.930       .  S
C1950      C1951   1.409       .  A
C1951      C1952   1.411       .  A
C1951     Br1958   1.928       .  S
C1952      C1953   1.410       .  A
C1952     Br1957   1.927       .  S
C1953      C1954   1.411       .  A
C1954     Br1955   1.931       .  S
C1959      C1960   1.412       .  A
C1959      C1964   1.412       .  A
C1959     Br1966   1.929       .  S
C1960      C1961   1.412       .  A
C1961      C1962   1.412       .  A
C1961     Br1968   1.930       .  S
C1962      C1963   1.410       .  A
C1962     Br1967   1.929       .  S
C1963      C1964   1.409       .  A
C1964     Br1965   1.929       .  S
C1969      C1970   1.410       .  A
C1969      C1974   1.414       .  A
C1969     Br1976   1.928       .  S
C1970      C1971   1.410       .  A
C1971      C1972   1.411       .  A
C1971     Br1978   1.930       .  S
C1972      C1973   1.412       .  A
C1972     Br1977   1.929       .  S
C1973      C1974   1.411       .  A
C1974     Br1975   1.927       .  S
C1979      C1980   1.416       .  A
C1979      C1984   1.411       .  A
C1979     Br1986   1.932       .  S
C1980      C1981   1.413       .  A
C1981      C1982   1.413       .  A
C1981     Br1988   1.929       .  S
C1982      C1983   1.410       .  A
C1982     Br1987   1.929       .  S
C1983      C1984   1.408       .  A
C1984     Br1985   1.930       .  S
C1989      C1990   1.409       .  A
C1989      C1994   1.410       .  A
C1989     Br1996   1.930       .  S
C1990      C1991   1.410       .  A
C1991      C1992   1.413       .  A
C1991     Br1998   1.929       .  S
C1992      C1993   1.411       .  A
C1992     Br1997   1.928       .  S
C1993      C1994   1.412       .  A
C1994     Br1995   1.930       .  S
C1999      C2000   1.411       .  A
C1999      C2004   1.411       .  A
C1999     Br2006   1.930       .  S
C2000      C2001   1.409       .  A
C2001      C2002   1.409       .  A
C2001     Br2008   1.930       .  S
C2002      C2003   1.412       .  A
C2002     Br2007   1.931       .  S
C2003      C2004   1.410       .  A
C2004     Br2005   1.929       .  S
C2009      C2010   1.419       .  A
C2009      C2014   1.413       .  A
C2009     Br2016   1.934       .  S
C2010      C2011   1.417       .  A
C2011      C2012   1.412       .  A
C2011     Br2018   1.932       .  S
C2012      C2013   1.418       .  A
C2012     Br2017   1.936       .  S
C2013      C2014   1.414       .  A
C2014     Br2015   1.932       .  S
C2019      C2020   1.415       .  A
C2019      C2024   1.414       .  A
C2019     Br2026   1.930       .  S
C2020      C2021   1.417       .  A
C2021      C2022   1.415       .  A
C2021     Br2028   1.931       .  S
C2022      C2023   1.411       .  A
C2022     Br2027   1.930       .  S
C2023      C2024   1.412       .  A
C2024     Br2025   1.930       .  S
C2029      C2030   1.412       .  A
C2029      C2034   1.408       .  A
C2029     Br2036   1.933       .  S
C2030      C2031   1.418       .  A
C2031      C2032   1.415       .  A
C2031     Br2038   1.933       .  S
C2032      C2033   1.416       .  A
C2032     Br2037   1.931       .  S
C2033      C2034   1.418       .  A
C2034     Br2035   1.935       .  S
C2039      C2040   1.412       .  A
C2039      C2044   1.412       .  A
C2039     Br2046   1.930       .  S
C2040      C2041   1.414       .  A
C2041      C2042   1.408       .  A
C2041     Br2048   1.935       .  S
C2042      C2043   1.415       .  A
C2042     Br2047   1.933       .  S
C2043      C2044   1.418       .  A
C2044     Br2045   1.933       .  S
C2049      C2050   1.411       .  A
C2049      C2054   1.413       .  A
C2049     Br2056   1.929       .  S
C2050      C2051   1.412       .  A
C2051      C2052   1.412       .  A
C2051     Br2058   1.929       .  S
C2052      C2053   1.409       .  A
C2052     Br2057   1.929       .  S
C2053      C2054   1.414       .  A
C2054     Br2055   1.931       .  S
C2059      C2060   1.419       .  A
C2059      C2064   1.412       .  A
C2059     Br2066   1.932       .  S
C2060      C2061   1.412       .  A
C2061      C2062   1.410       .  A
C2061     Br2068   1.930       .  S
C2062      C2063   1.410       .  A
C2062     Br2067   1.931       .  S
C2063      C2064   1.408       .  A
C2064     Br2065   1.931       .  S
C2069      C2070   1.408       .  A
C2069      C2074   1.408       .  A
C2069     Br2076   1.930       .  S
C2070      C2071   1.412       .  A
C2071      C2072   1.410       .  A
C2071     Br2078   1.931       .  S
C2072      C2073   1.410       .  A
C2072     Br2077   1.930       .  S
C2073      C2074   1.413       .  A
C2074     Br2075   1.931       .  S
C2079      C2080   1.413       .  A
C2079      C2084   1.410       .  A
C2079     Br2086   1.931       .  S
C2080      C2081   1.409       .  A
C2081      C2082   1.409       .  A
C2081     Br2088   1.930       .  S
C2082      C2083   1.411       .  A
C2082     Br2087   1.930       .  S
C2083      C2084   1.410       .  A
C2084     Br2085   1.931       .  S
C2089      C2090   1.410       .  A
C2089      C2094   1.411       .  A
C2089     Br2096   1.929       .  S
C2090      C2091   1.412       .  A
C2091      C2092   1.411       .  A
C2091     Br2098   1.930       .  S
C2092      C2093   1.410       .  A
C2092     Br2097   1.930       .  S
C2093      C2094   1.413       .  A
C2094     Br2095   1.930       .  S
C2099      C2100   1.413       .  A
C2099      C2104   1.412       .  A
C2099     Br2106   1.930       .  S
C2100      C2101   1.416       .  A
C2101      C2102   1.413       .  A
C2101     Br2108   1.931       .  S
C2102      C2103   1.410       .  A
C2102     Br2107   1.930       .  S
C2103      C2104   1.413       .  A
C2104     Br2105   1.931       .  S
C2109      C2110   1.409       .  A
C2109      C2114   1.411       .  A
C2109     Br2116   1.928       .  S
C2110      C2111   1.408       .  A
C2111      C2112   1.409       .  A
C2111     Br2118   1.930       .  S
C2112      C2113   1.414       .  A
C2112     Br2117   1.932       .  S
C2113      C2114   1.410       .  A
C2114     Br2115   1.928       .  S
C2119      C2120   1.411       .  A
C2119      C2124   1.408       .  A
C2119     Br2126   1.931       .  S
C2120      C2121   1.410       .  A
C2121      C2122   1.410       .  A
C2121     Br2128   1.929       .  S
C2122      C2123   1.410       .  A
C2122     Br2127   1.929       .  S
C2123      C2124   1.409       .  A
C2124     Br2125   1.930       .  S
C2129      C2130   1.408       .  A
C2129      C2134   1.410       .  A
C2129     Br2136   1.929       .  S
C2130      C2131   1.408       .  A
C2131      C2132   1.408       .  A
C2131     Br2138   1.930       .  S
C2132      C2133   1.413       .  A
C2132     Br2137   1.931       .  S
C2133      C2134   1.411       .  A
C2134     Br2135   1.928       .  S
C2139      C2140   1.411       .  A
C2139      C2144   1.407       .  A
C2139     Br2146   1.931       .  S
C2140      C2141   1.410       .  A
C2141      C2142   1.411       .  A
C2141     Br2148   1.928       .  S
C2142      C2143   1.409       .  A
C2142     Br2147   1.928       .  S
C2143      C2144   1.409       .  A
C2144     Br2145   1.931       .  S
C2149      C2150   1.410       .  A
C2149      C2154   1.409       .  A
C2149     Br2156   1.930       .  S
C2150      C2151   1.414       .  A
C2151      C2152   1.410       .  A
C2151     Br2158   1.931       .  S
C2152      C2153   1.408       .  A
C2152     Br2157   1.930       .  S
C2153      C2154   1.410       .  A
C2154     Br2155   1.930       .  S
C2159      C2160   1.413       .  A
C2159      C2164   1.413       .  A
C2159     Br2166   1.930       .  S
C2160      C2161   1.415       .  A
C2161      C2162   1.410       .  A
C2161     Br2168   1.934       .  S
C2162      C2163   1.415       .  A
C2162     Br2167   1.932       .  S
C2163      C2164   1.418       .  A
C2164     Br2165   1.933       .  S
C2169      C2170   1.411       .  A
C2169      C2174   1.410       .  A
C2169     Br2176   1.929       .  S
C2170      C2171   1.410       .  A
C2171      C2172   1.409       .  A
C2171     Br2178   1.930       .  S
C2172      C2173   1.409       .  A
C2172     Br2177   1.929       .  S
C2173      C2174   1.409       .  A
C2174     Br2175   1.929       .  S
C2179      C2180   1.412       .  A
C2179      C2184   1.411       .  A
C2179     Br2186   1.930       .  S
C2180      C2181   1.417       .  A
C2181      C2182   1.412       .  A
C2181     Br2188   1.934       .  S
C2182      C2183   1.415       .  A
C2182     Br2187   1.931       .  S
C2183      C2184   1.417       .  A
C2184     Br2185   1.934       .  S
C2189      C2190   1.412       .  A
C2189      C2194   1.413       .  A
C2189     Br2196   1.929       .  S
C2190      C2191   1.409       .  A
C2191      C2192   1.411       .  A
C2191     Br2198   1.929       .  S
C2192      C2193   1.412       .  A
C2192     Br2197   1.930       .  S
C2193      C2194   1.410       .  A
C2194     Br2195   1.928       .  S
C2199      C2200   1.414       .  A
C2199      C2204   1.412       .  A
C2199     Br2206   1.931       .  S
C2200      C2201   1.411       .  A
C2201      C2202   1.411       .  A
C2201     Br2208   1.931       .  S
C2202      C2203   1.415       .  A
C2202     Br2207   1.932       .  S
C2203      C2204   1.411       .  A
C2204     Br2205   1.930       .  S
