geometry optimzed in LAMMPS
_audit_creation_date              2020-11-30 
_audit_creation_method            'lammps2cif' 
_symmetry_space_group_name_H-M    'P1' 
_symmetry_Int_Tables_number       1 
_symmetry_cell_setting            triclinic 
loop_ 
_symmetry_equiv_pos_as_xyz 
  x,y,z 
_cell_length_a                    144.76169893 
_cell_length_b                    142.71293749666822 
_cell_length_c                    142.61557072463953 
_cell_angle_alpha                 90.00158919598688 
_cell_angle_beta                  90.00800030527951 
_cell_angle_gamma                 89.94723965915996 
loop_ 
_atom_site_label 
_atom_site_type_symbol 
_atom_site_fract_x 
_atom_site_fract_y 
_atom_site_fract_z 
_atom_site_charge 
N1          N  0.38263228  0.72178584  0.18617013    -0.26700
N2          N  0.38629857  0.71434978  0.18211405    -0.34500
C3          C  0.38004795  0.71035369  0.17646077     0.01700
C4          C  0.37200939  0.71554490  0.17686472     0.07700
C5          C  0.37387100  0.72277131  0.18311233    -0.05400
H6          H  0.38143102  0.70434876  0.17204736     0.08400
H7          H  0.36931344  0.72844438  0.18509600     0.09600
Cu8        Cu  0.39987353  0.71048038  0.18356738     0.44200
Cu9        Cu  0.39022225  0.73004017  0.19540879     0.42000
Cu10       Cu  0.41478856  0.72325484  0.19896821     0.43900
N11         N  0.41373724  0.70774313  0.18479532    -0.34100
N12         N  0.41937578  0.71228520  0.19047908    -0.28300
C13         C  0.42791090  0.70859639  0.18960123    -0.04400
C14         C  0.42755475  0.70144647  0.18300540     0.07800
C15         C  0.41845292  0.70114530  0.18012224     0.01600
H16         H  0.43391010  0.71093614  0.19347115     0.09200
H17         H  0.41539582  0.69642097  0.17506996     0.08300
N18         N  0.40789638  0.73371937  0.20645649    -0.35500
N19         N  0.39914834  0.73610734  0.20512611    -0.27700
C20         C  0.39680232  0.74269465  0.21143299    -0.02900
C21         C  0.40439598  0.74458015  0.21702782     0.05700
C22         C  0.41131714  0.73878756  0.21363644     0.03800
H23         H  0.38997683  0.74572632  0.21200696     0.08900
H24         H  0.41825356  0.73808421  0.21637134     0.07700
N25         N  0.31288201  0.72101575  0.11956109    -0.26700
N26         N  0.31643745  0.71298822  0.11671187    -0.34500
C27         C  0.32263917  0.70997991  0.12304404     0.01700
C28         C  0.32301325  0.71644814  0.13026789     0.07700
C29         C  0.31671808  0.72335159  0.12782729    -0.05400
H30         H  0.32679921  0.70373399  0.12223587     0.08400
H31         H  0.31521217  0.72972491  0.13164023     0.09600
Cu32       Cu  0.31358778  0.70731511  0.10374694     0.44200
Cu33       Cu  0.30334497  0.72841353  0.11161755     0.42000
Cu34       Cu  0.30007978  0.72103754  0.08720540     0.43900
N35         N  0.31309551  0.70472414  0.08954520    -0.34100
N36         N  0.30869984  0.70995129  0.08332041    -0.28300
C37         C  0.31099724  0.70695930  0.07464893    -0.04400
C38         C  0.31704765  0.69945519  0.07555194     0.07800
C39         C  0.31816734  0.69825519  0.08508009     0.01600
H40         H  0.30856493  0.71009811  0.06820019     0.09200
H41         H  0.32272513  0.69334280  0.08854798     0.08300
N42         N  0.29208773  0.73125009  0.09387717    -0.35500
N43         N  0.29339568  0.73388396  0.10267471    -0.27700
C44         C  0.28699578  0.74029780  0.10498945    -0.02900
C45         C  0.28132818  0.74181495  0.09731605     0.05700
C46         C  0.28477286  0.73595837  0.09038413     0.03800
H47         H  0.28645080  0.74348656  0.11184556     0.08900
H48         H  0.28206816  0.73505709  0.08337030     0.07700
N49         N  0.11850586  0.79887792  0.18460234    -0.26700
N50         N  0.11539936  0.80667681  0.18074553    -0.34500
C51         C  0.12200142  0.81033557  0.17524947     0.01700
C52         C  0.12967110  0.80455099  0.17559440     0.07700
C53         C  0.12721177  0.79732649  0.18161097    -0.05400
H54         H  0.12115663  0.81661206  0.17108200     0.08400
H55         H  0.13137576  0.79134840  0.18359114     0.09600
Cu56       Cu  0.10200168  0.81144087  0.18238007     0.44200
Cu57       Cu  0.11036468  0.79100763  0.19365008     0.42000
Cu58       Cu  0.08567236  0.79735885  0.19554157     0.43900
N59         N  0.08791562  0.81387610  0.18244630    -0.34100
N60         N  0.08178670  0.80861945  0.18687000    -0.28300
C61         C  0.07324109  0.81168738  0.18458957    -0.04400
C62         C  0.07409362  0.81923149  0.17846500     0.07800
C63         C  0.08350300  0.82039520  0.17733432     0.01600
H64         H  0.06689514  0.80855177  0.18706551     0.09200
H65         H  0.08692716  0.82539451  0.17281852     0.08300
N66         N  0.09228353  0.78724446  0.20393469    -0.35500
N67         N  0.10117288  0.78516098  0.20320481    -0.27700
C68         C  0.10344175  0.77894525  0.20989847    -0.02900
C69         C  0.09565365  0.77691036  0.21513864     0.05700
C70         C  0.08867922  0.78227055  0.21112232     0.03800
H71         H  0.11033068  0.77618729  0.21091149     0.08900
H72         H  0.08157571  0.78273285  0.21343009     0.07700
N73         N  0.19535792  0.80265558  0.12532819    -0.26700
N74         N  0.19125817  0.81030811  0.12220027    -0.34500
C75         C  0.18448057  0.81275437  0.12813261     0.01700
C76         C  0.18420496  0.80628955  0.13536203     0.07700
C77         C  0.19123989  0.79998601  0.13337359    -0.05400
H78         H  0.17969225  0.81843414  0.12687049     0.08400
H79         H  0.19292245  0.79367069  0.13720803     0.09600
Cu80       Cu  0.19357426  0.81588156  0.10906030     0.44200
Cu81       Cu  0.20551292  0.79582858  0.11761218     0.42000
Cu82       Cu  0.20689243  0.80194586  0.09265512     0.43900
N83         N  0.19373198  0.81827369  0.09478848    -0.34100
N84         N  0.19827746  0.81302825  0.08869360    -0.28300
C85         C  0.19600827  0.81582126  0.07996822    -0.04400
C86         C  0.18972560  0.82314766  0.08063288     0.07800
C87         C  0.18848424  0.82451075  0.09014721     0.01600
H88         H  0.19851916  0.81255624  0.07361430     0.09200
H89         H  0.18377013  0.82935505  0.09348743     0.08300
N90         N  0.21541278  0.79206460  0.09917497    -0.35500
N91         N  0.21502168  0.79017843  0.10825595    -0.27700
C92         C  0.22191023  0.78427637  0.11048021    -0.02900
C93         C  0.22686715  0.78223824  0.10244934     0.05700
C94         C  0.22252606  0.78725464  0.09537889     0.03800
H95         H  0.22330313  0.78177768  0.11750274     0.08900
H96         H  0.22464445  0.78773439  0.08812042     0.07700
N97         N  0.19072558  0.72468507  0.37506388    -0.26700
N98         N  0.18768665  0.71652905  0.37815833    -0.34500
C99         C  0.18120430  0.71328561  0.37230784     0.01700
C100        C  0.17997476  0.71970660  0.36516885     0.07700
C101        C  0.18619166  0.72685881  0.36708134    -0.05400
H102        H  0.17719080  0.70702320  0.37357960     0.08400
H103        H  0.18695240  0.73339110  0.36331433     0.09600
Cu104      Cu  0.19042527  0.71115057  0.39127730     0.44200
Cu105      Cu  0.20000318  0.73265748  0.38280096     0.42000
Cu106      Cu  0.20223888  0.72596898  0.40762459     0.43900
N107        N  0.18966749  0.70920463  0.40558464    -0.34100
N108        N  0.19366197  0.71486917  0.41168831    -0.28300
C109        C  0.19075968  0.71255255  0.42035867    -0.04400
C110        C  0.18465223  0.70507931  0.41965534     0.07800
C111        C  0.18416615  0.70314232  0.41016446     0.01600
H112        H  0.19271577  0.71623860  0.42668161     0.09200
H113        H  0.17974386  0.69806565  0.40676649     0.08300
N114        N  0.21017129  0.73637598  0.40110750    -0.35500
N115        N  0.20930936  0.73864906  0.39214824    -0.27700
C116        C  0.21560100  0.74521611  0.38999785    -0.02900
C117        C  0.22070771  0.74725575  0.39794639     0.05700
C118        C  0.21704575  0.74153889  0.40488131     0.03800
H119        H  0.21642111  0.74821904  0.38308610     0.08900
H120        H  0.21935200  0.74100222  0.41207731     0.07700
N121        N  0.12041875  0.72230586  0.30702930    -0.26700
N122        N  0.11675549  0.71627583  0.31297199    -0.34500
C123        C  0.12256199  0.71495690  0.32017655     0.01700
C124        C  0.13029568  0.72046741  0.31876542     0.07700
C125        C  0.12870496  0.72506439  0.31034891    -0.05400
H126        H  0.12113121  0.71044404  0.32609066     0.08400
H127        H  0.13320832  0.73003644  0.30690784     0.09600
Cu128      Cu  0.10383171  0.71049271  0.31128211     0.44200
Cu129      Cu  0.11348937  0.72629065  0.29491572     0.42000
Cu130      Cu  0.08970084  0.71726742  0.29143721     0.43900
N131        N  0.09053748  0.70576717  0.30925961    -0.34100
N132        N  0.08521516  0.70812509  0.30210067    -0.28300
C133        C  0.07696700  0.70383380  0.30315969    -0.04400
C134        C  0.07716513  0.69857541  0.31137889     0.07800
C135        C  0.08589687  0.70000397  0.31501514     0.01600
H136        H  0.07123949  0.70451846  0.29833369     0.09200
H137        H  0.08871662  0.69711603  0.32141661     0.08300
N138        N  0.09648419  0.72656203  0.28225357    -0.35500
N139        N  0.10506169  0.72951877  0.28356034    -0.27700
C140        C  0.10744848  0.73523430  0.27648632    -0.02900
C141        C  0.10006217  0.73606728  0.27039989     0.05700
C142        C  0.09319553  0.73047415  0.27428134     0.03800
H143        H  0.11408316  0.73866791  0.27591300     0.08900
H144        H  0.08634343  0.72929551  0.27149883     0.07700
N145        N  0.30575675  0.80954508  0.37141699    -0.26700
N146        N  0.31020784  0.81682152  0.37487426    -0.34500
C147        C  0.31651479  0.81978261  0.36867700     0.01700
C148        C  0.31612411  0.81406090  0.36087116     0.07700
C149        C  0.30919843  0.80760525  0.36283438    -0.05400
H150        H  0.32131719  0.82544312  0.36996854     0.08400
H151        H  0.30699203  0.80181911  0.35848014     0.09600
Cu152      Cu  0.30822365  0.82163066  0.38827247     0.44200
Cu153      Cu  0.29560580  0.80291169  0.37935642     0.42000
Cu154      Cu  0.29251745  0.81039713  0.40440185     0.43900
N155        N  0.30713518  0.82516874  0.40216193    -0.34100
N156        N  0.30149818  0.82121564  0.40827790    -0.28300
C157        C  0.30295030  0.82518580  0.41674860    -0.04400
C158        C  0.30988299  0.83186302  0.41580758     0.07800
C159        C  0.31232693  0.83161586  0.40647930     0.01600
H160        H  0.29940344  0.82320543  0.42312119     0.09200
H161        H  0.31760545  0.83573590  0.40304714     0.08300
N162        N  0.28448046  0.80032800  0.39750114    -0.35500
N163        N  0.28558104  0.79791508  0.38859220    -0.27700
C164        C  0.27899941  0.79172892  0.38623757    -0.02900
C165        C  0.27348652  0.79005244  0.39396913     0.05700
C166        C  0.27717907  0.79560068  0.40102021     0.03800
H167        H  0.27826054  0.78870640  0.37932123     0.08900
H168        H  0.27461211  0.79634405  0.40810519     0.07700
N169        N  0.37652848  0.80279288  0.30545156    -0.26700
N170        N  0.37985906  0.80968118  0.31060284    -0.34500
C171        C  0.37328288  0.81276082  0.31646510     0.01700
C172        C  0.36536829  0.80752729  0.31500178     0.07700
C173        C  0.36767946  0.80122536  0.30796602    -0.05400
H174        H  0.37432888  0.81820067  0.32163414     0.08400
H175        H  0.36329806  0.79587373  0.30495726     0.09600
Cu176      Cu  0.39346482  0.81387452  0.31004779     0.44200
Cu177      Cu  0.38472641  0.79623942  0.29546177     0.42000
Cu178      Cu  0.40983809  0.80188256  0.29495897     0.43900
N179        N  0.40752743  0.81605368  0.31056068    -0.34100
N180        N  0.41367873  0.81166545  0.30529161    -0.28300
C181        C  0.42218967  0.81454603  0.30789527    -0.04400
C182        C  0.42127182  0.82101380  0.31515082     0.07800
C183        C  0.41187671  0.82175893  0.31659895     0.01600
H184        H  0.42855481  0.81205150  0.30480311     0.09200
H185        H  0.40841015  0.82604884  0.32177126     0.08300
N186        N  0.40305656  0.79316499  0.28524448    -0.35500
N187        N  0.39407023  0.79142268  0.28550252    -0.27700
C188        C  0.39175612  0.78610579  0.27810786    -0.02900
C189        C  0.39959415  0.78427646  0.27290006     0.05700
C190        C  0.40667219  0.78883661  0.27764398     0.03800
H191        H  0.38480270  0.78376493  0.27662635     0.08900
H192        H  0.41386163  0.78917151  0.27560900     0.07700
C193        C  0.43003012  0.94282703  0.50028310     0.80800
N194        N  0.43648238  0.94309354  0.49335608    -0.77500
C195        C  0.44322115  0.94974247  0.49343332     0.83300
N196        N  0.44337933  0.95623445  0.50043676    -0.77400
C197        C  0.43693325  0.95604971  0.50737435     0.83400
N198        N  0.43034175  0.94928206  0.50727663    -0.79100
N199        N  0.34156782  0.87024093  0.48222075    -0.26700
N200        N  0.34827564  0.87321305  0.47671581    -0.34500
C201        C  0.34613729  0.87094173  0.46777226     0.01700
C202        C  0.33766796  0.86632128  0.46780458     0.07700
C203        C  0.33503428  0.86606051  0.47708619    -0.05400
H204        H  0.35050384  0.87231953  0.46177592     0.08400
H205        H  0.32898376  0.86270726  0.48000231     0.09600
Cu206      Cu  0.35988723  0.87969864  0.48250923     0.44200
Cu207      Cu  0.34196165  0.87058203  0.49654988     0.42000
Cu208      Cu  0.36096992  0.87876967  0.50917310     0.43900
N209        N  0.36972191  0.88630457  0.49099561    -0.34100
N210        N  0.36994179  0.88617414  0.50030171    -0.28300
C211        C  0.37688160  0.89172135  0.50324122    -0.04400
C212        C  0.38128417  0.89547417  0.49548538     0.07800
C213        C  0.37658679  0.89185080  0.48785532     0.01600
H214        H  0.37856576  0.89295272  0.51052682     0.09200
H215        H  0.37788079  0.89335590  0.48053716     0.08300
N216        N  0.35061881  0.87076568  0.51559939    -0.35500
N217        N  0.34352630  0.86790614  0.51055387    -0.27700
C218        C  0.33813894  0.86231088  0.51571302    -0.02900
C219        C  0.34190459  0.86154834  0.52456309     0.05700
C220        C  0.34983556  0.86707676  0.52431140     0.03800
H221        H  0.33203453  0.85882319  0.51307744     0.08900
H222        H  0.35482922  0.86800668  0.52987679     0.07700
C223        C  0.49752592  0.93874773  0.43091395     0.80800
N224        N  0.49069339  0.93868953  0.43745970    -0.77500
C225        C  0.49017105  0.94553480  0.44405723     0.83300
N226        N  0.49648672  0.95257529  0.44398937    -0.77400
C227        C  0.50333321  0.95276787  0.43746856     0.83400
N228        N  0.50387615  0.94577971  0.43098245    -0.79100
N229        N  0.48764421  0.85836321  0.34727785    -0.26700
N230        N  0.48238743  0.86250390  0.35358999    -0.34500
C231        C  0.47359850  0.85944651  0.35238253     0.01700
C232        C  0.47351859  0.85305985  0.34495871     0.07700
C233        C  0.48256503  0.85262441  0.34198166    -0.05400
H234        H  0.46776202  0.86164531  0.35657809     0.08400
H235        H  0.48534161  0.84840124  0.33634732     0.09600
Cu236      Cu  0.48857804  0.87186544  0.36310225     0.44200
Cu237      Cu  0.50156309  0.86017399  0.34607832     0.42000
Cu238      Cu  0.51501079  0.87348152  0.36133119     0.43900
N239        N  0.49730714  0.88080950  0.37084318    -0.34100
N240        N  0.50643815  0.88143073  0.37012785    -0.28300
C241        C  0.50946050  0.88815378  0.37600946    -0.04400
C242        C  0.50197010  0.89192699  0.38070985     0.07800
C243        C  0.49439532  0.88708759  0.37726224     0.01600
H244        H  0.51663301  0.89011200  0.37683656     0.09200
H245        H  0.48724034  0.88811863  0.37919236     0.08300
N246        N  0.52101234  0.86490756  0.35110071    -0.35500
N247        N  0.51562755  0.86013749  0.34537994    -0.27700
C248        C  0.52075500  0.85494406  0.33956792    -0.02900
C249        C  0.52994239  0.85642634  0.34164951     0.05700
C250        C  0.52989513  0.86284902  0.34900767     0.03800
H251        H  0.51791228  0.85030564  0.33431301     0.08900
H252        H  0.53583358  0.86563197  0.35267483     0.07700
N253        N  0.64211862  0.01976230  0.34207558    -0.26700
N254        N  0.63921145  0.02472060  0.34930939    -0.34500
C255        C  0.64303457  0.03335623  0.34878551     0.01700
C256        C  0.64855843  0.03372834  0.34079121     0.07700
C257        C  0.64774262  0.02497756  0.33676362    -0.05400
H258        H  0.64200587  0.03886400  0.35389158     0.08400
H259        H  0.65132006  0.02240074  0.33062089     0.09600
Cu260      Cu  0.63048759  0.01857245  0.35932310     0.44200
Cu261      Cu  0.63974259  0.00569981  0.34042855     0.42000
Cu262      Cu  0.62938825  0.99221120  0.35832990     0.43900
N263        N  0.62171058  0.01004285  0.36737649    -0.34100
N264        N  0.62129967  0.00076646  0.36694412    -0.28300
C265        C  0.61467635  0.99773091  0.37283462    -0.04400
C266        C  0.61073362  0.00539230  0.37724376     0.07800
C267        C  0.61537672  0.01307436  0.37361148     0.01600
H268        H  0.61286329  0.99044458  0.37382255     0.09200
H269        H  0.61416292  0.02036739  0.37526967     0.08300
N270        N  0.63752252  0.98617526  0.34786727    -0.35500
N271        N  0.64090180  0.99139910  0.34105201    -0.27700
C272        C  0.64604135  0.98610707  0.33533050    -0.02900
C273        C  0.64598046  0.97701509  0.33863789     0.05700
C274        C  0.64049755  0.97728081  0.34664261     0.03800
H275        H  0.64986272  0.98883590  0.32941798     0.08900
H276        H  0.63892913  0.97150761  0.35129089     0.07700
C277        C  0.56301970  0.00957686  0.42591011     0.80800
N278        N  0.56250339  0.01652983  0.43241100    -0.77500
C279        C  0.55590624  0.01633785  0.43920807     0.83300
N280        N  0.54967324  0.00920651  0.43934223    -0.77400
C281        C  0.55010040  0.00222864  0.43285501     0.83400
N282        N  0.55684490  0.00241495  0.42622412    -0.79100
N283        N  0.34582048  0.02047083  0.64334004    -0.26700
N284        N  0.35259436  0.02591087  0.64042929    -0.34500
C285        C  0.35094793  0.03471073  0.64354814     0.01700
C286        C  0.34279596  0.03458352  0.64875003     0.07700
C287        C  0.33979419  0.02544527  0.64839212    -0.05400
H288        H  0.35550334  0.04061702  0.64246977     0.08400
H289        H  0.33383855  0.02247901  0.65187685     0.09600
Cu290      Cu  0.36370743  0.01992132  0.63316919     0.44200
Cu291      Cu  0.34564474  0.00628319  0.64201107     0.42000
Cu292      Cu  0.36429744  0.99313701  0.63409041     0.43900
N293        N  0.37292674  0.01114352  0.62594575    -0.34100
N294        N  0.37303251  0.00183637  0.62609848    -0.28300
C295        C  0.37958116  0.99879149  0.62009461    -0.04400
C296        C  0.38385061  0.00646939  0.61602448     0.07800
C297        C  0.37945602  0.01416172  0.61992970     0.01600
H298        H  0.38107952  0.99148786  0.61874082     0.09200
H299        H  0.38071988  0.02145586  0.61832221     0.08300
N300        N  0.35379170  0.98710173  0.64228596    -0.35500
N301        N  0.34679577  0.99238025  0.64496244    -0.27700
C302        C  0.34115165  0.98749689  0.65053902    -0.02900
C303        C  0.34463087  0.97855300  0.65148135     0.05700
C304        C  0.35266757  0.97847935  0.64608039     0.03800
H305        H  0.33501315  0.99036593  0.65377700     0.08900
H306        H  0.35743943  0.97270652  0.64521522     0.07700
C307        C  0.43192092  0.01286172  0.56778792     0.80800
N308        N  0.43798193  0.02014657  0.56743314    -0.77500
C309        C  0.44476286  0.02039116  0.56083268     0.83300
N310        N  0.44531799  0.01336115  0.55441814    -0.77400
C311        C  0.43919313  0.00614159  0.55453843     0.83400
N312        N  0.43255513  0.00587813  0.56130669    -0.79100
N313        N  0.48849804  0.15281029  0.65534674    -0.26700
N314        N  0.48363455  0.14997730  0.64804399    -0.34500
C315        C  0.47485245  0.15305642  0.64908246     0.01700
C316        C  0.47429092  0.15809788  0.65742643     0.07700
C317        C  0.48308419  0.15773892  0.66115080    -0.05400
H318        H  0.46939308  0.15198087  0.64401656     0.08400
H319        H  0.48550485  0.16111021  0.66748510     0.09600
Cu320      Cu  0.48996866  0.14273300  0.63696755     0.44200
Cu321      Cu  0.50253234  0.15117151  0.65673518     0.42000
Cu322      Cu  0.51560069  0.14447763  0.63667094     0.43900
N323        N  0.49864510  0.13625834  0.62709564    -0.34100
N324        N  0.50775152  0.13717252  0.62679163    -0.28300
C325        C  0.51106544  0.13205787  0.61958700    -0.04400
C326        C  0.50375241  0.12759576  0.61520227     0.07800
C327        C  0.49599533  0.13043502  0.62016227     0.01600
H328        H  0.51831650  0.13137949  0.61787628     0.09200
H329        H  0.48891992  0.12837537  0.61887214     0.08300
N330        N  0.52151835  0.15067838  0.64848648    -0.35500
N331        N  0.51662465  0.15265520  0.65604645    -0.27700
C332        C  0.52201404  0.15695721  0.66237643    -0.02900
C333        C  0.53076902  0.15782668  0.65862912     0.05700
C334        C  0.53022176  0.15374134  0.64980752     0.03800
H335        H  0.51954680  0.15979611  0.66895010     0.08900
H336        H  0.53563944  0.15335942  0.64459627     0.07700
C337        C  0.50088691  0.08060760  0.56494268     0.80800
N338        N  0.50789316  0.08047404  0.55857965    -0.77500
C339        C  0.50813788  0.07386082  0.55169674     0.83300
N340        N  0.50133202  0.06728168  0.55128629    -0.77400
C341        C  0.49424479  0.06738196  0.55756607     0.83400
N342        N  0.49405168  0.07410070  0.56432531    -0.79100
C343        C  0.56786551  0.07805859  0.49475063     0.80800
N344        N  0.56163394  0.07753509  0.50189148    -0.77500
C345        C  0.55485394  0.07091114  0.50176505     0.83300
N346        N  0.55448594  0.06469463  0.49453488    -0.77400
C347        C  0.56070573  0.06512629  0.48740373     0.83400
N348        N  0.56730383  0.07188489  0.48751853    -0.79100
N349        N  0.65973883  0.14550084  0.48725964    -0.26700
N350        N  0.65234869  0.14499715  0.48185323    -0.34500
C351        C  0.65418042  0.14947930  0.47371957     0.01700
C352        C  0.66310623  0.15305674  0.47420812     0.07700
C353        C  0.66637163  0.15034324  0.48286955    -0.05400
H354        H  0.64920792  0.15058925  0.46816530     0.08400
H355        H  0.67288777  0.15227118  0.48604281     0.09600
Cu356      Cu  0.64001028  0.13930609  0.48691957     0.44200
Cu357      Cu  0.65999672  0.14198030  0.50119495     0.42000
Cu358      Cu  0.63877815  0.14021206  0.51299010     0.43900
N359        N  0.62963874  0.13309649  0.49504662    -0.34100
N360        N  0.62921473  0.13348085  0.50432303    -0.28300
C361        C  0.62205651  0.12823525  0.50726644    -0.04400
C362        C  0.61775127  0.12431996  0.49953371     0.07800
C363        C  0.62274094  0.12758660  0.49190122     0.01600
H364        H  0.62030010  0.12711878  0.51455399     0.09200
H365        H  0.62162305  0.12588006  0.48460040     0.08300
N366        N  0.65063419  0.14539099  0.51950848    -0.35500
N367        N  0.65866044  0.14521135  0.51513083    -0.27700
C368        C  0.66506472  0.14949665  0.52038366    -0.02900
C369        C  0.66091396  0.15266873  0.52849362     0.05700
C370        C  0.65172537  0.14991106  0.52774802     0.03800
H371        H  0.67202528  0.15095862  0.51804808     0.08900
H372        H  0.64617165  0.15150099  0.53256600     0.07700
N373        N  0.12315341  0.19702762  0.78249692    -0.26700
N374        N  0.11995311  0.19236764  0.78980150    -0.34500
C375        C  0.12653321  0.18665004  0.79309738     0.01700
C376        C  0.13430140  0.18761280  0.78757439     0.07700
C377        C  0.13193055  0.19424228  0.78085188    -0.05400
H378        H  0.12562758  0.18196793  0.79899102     0.08400
H379        H  0.13626505  0.19689993  0.77527741     0.09600
Cu380      Cu  0.10669354  0.19350893  0.79485018     0.44200
Cu381      Cu  0.11505276  0.20711568  0.77580964     0.42000
Cu382      Cu  0.09127590  0.21063611  0.78541472     0.43900
N383        N  0.09320082  0.19480712  0.79918238    -0.34100
N384        N  0.08741409  0.20117768  0.79591118    -0.28300
C385        C  0.07922245  0.20014004  0.80029799    -0.04400
C386        C  0.07994425  0.19271093  0.80656488     0.07800
C387        C  0.08890456  0.18952200  0.80562567     0.01600
H388        H  0.07318938  0.20441115  0.79895693     0.09200
H389        H  0.09211405  0.18378735  0.80937294     0.08300
N390        N  0.09729799  0.21873703  0.77481484    -0.35500
N391        N  0.10574780  0.21743954  0.77147483    -0.27700
C392        C  0.10754403  0.22410972  0.76507278    -0.02900
C393        C  0.09989923  0.22989324  0.76427419     0.05700
C394        C  0.09351618  0.22624540  0.77052538     0.03800
H395        H  0.11402698  0.22475228  0.76136143     0.08900
H396        H  0.08671788  0.22900456  0.77205192     0.07700
N397        N  0.19423835  0.13098222  0.78566883    -0.26700
N398        N  0.18965562  0.12846621  0.79324477    -0.34500
C399        C  0.18363061  0.13524214  0.79552982     0.01700
C400        C  0.18439601  0.14238431  0.78900272     0.07700
C401        C  0.19120000  0.13944227  0.78282963    -0.05400
H402        H  0.17862789  0.13469179  0.80113507     0.08400
H403        H  0.19351712  0.14300284  0.77656192     0.09600
Cu404      Cu  0.19056777  0.11513173  0.79869106     0.44200
Cu405      Cu  0.20364696  0.12198529  0.77950839     0.42000
Cu406      Cu  0.20342158  0.09693298  0.78594068     0.43900
N407        N  0.18912116  0.10094944  0.80095305    -0.34100
N408        N  0.19334373  0.09420246  0.79623825    -0.28300
C409        C  0.18994326  0.08588459  0.79917879    -0.04400
C410        C  0.18332980  0.08756888  0.80606098     0.07800
C411        C  0.18304492  0.09718196  0.80695632     0.01600
H412        H  0.19210618  0.07913918  0.79650216     0.09200
H413        H  0.17856209  0.10121705  0.81149166     0.08300
N414        N  0.21280279  0.10298291  0.77641334    -0.35500
N415        N  0.21275878  0.11204306  0.77441517    -0.27700
C416        C  0.21959188  0.11394781  0.76837991    -0.02900
C417        C  0.22424774  0.10575029  0.76633299     0.05700
C418        C  0.21973671  0.09888811  0.77153133     0.03800
H419        H  0.22096768  0.12086106  0.76561242     0.08900
H420        H  0.22142682  0.09150777  0.77181557     0.07700
N421        N  0.19253049  0.38981505  0.70702602    -0.26700
N422        N  0.18862231  0.39373602  0.69963351    -0.34500
C423        C  0.18202066  0.38803948  0.69631639     0.01700
C424        C  0.18170686  0.38011693  0.70188321     0.07700
C425        C  0.18850166  0.38145700  0.70860951    -0.05400
H426        H  0.17748660  0.38976967  0.69053738     0.08400
H427        H  0.19014564  0.37690451  0.71443986     0.09600
Cu428      Cu  0.19134278  0.40720649  0.69518882     0.44200
Cu429      Cu  0.20251715  0.39665115  0.71491200     0.42000
Cu430      Cu  0.20504766  0.42198236  0.70982071     0.43900
N431        N  0.19210233  0.42152016  0.69339049    -0.34100
N432        N  0.19673327  0.42718264  0.69900627    -0.28300
C433        C  0.19467097  0.43612015  0.69669699    -0.04400
C434        C  0.18848436  0.43600118  0.68923882     0.07800
C435        C  0.18707444  0.42661183  0.68734638     0.01600
H436        H  0.19723261  0.44222410  0.70036394     0.09200
H437        H  0.18228167  0.42364842  0.68234341     0.08300
N438        N  0.21293337  0.41449090  0.71957493    -0.35500
N439        N  0.21205801  0.40542197  0.72133330    -0.27700
C440        C  0.21841897  0.40286559  0.72772820    -0.02900
C441        C  0.22355674  0.41068077  0.73013794     0.05700
C442        C  0.21986971  0.41791104  0.72484271     0.03800
H443        H  0.21926595  0.39580511  0.73035014     0.08900
H444        H  0.22215895  0.42512310  0.72470201     0.07700
N445        N  0.12327184  0.32175722  0.70946223    -0.26700
N446        N  0.11962280  0.32692145  0.70275528    -0.34500
C447        C  0.12570887  0.33345358  0.70004998     0.01700
C448        C  0.13365786  0.33239568  0.70533112     0.07700
C449        C  0.13187503  0.32489294  0.71125936    -0.05400
H450        H  0.12429093  0.33874695  0.69481891     0.08400
H451        H  0.13641518  0.32203065  0.71656304     0.09600
Cu452      Cu  0.10623455  0.32531205  0.69833951     0.44200
Cu453      Cu  0.11566417  0.31102937  0.71552867     0.42000
Cu454      Cu  0.09058395  0.30884840  0.70926214     0.43900
N455        N  0.09230111  0.32494924  0.69576595    -0.34100
N456        N  0.08630637  0.31922558  0.69976232    -0.28300
C457        C  0.07775042  0.32153106  0.69671940    -0.04400
C458        C  0.07853203  0.32905351  0.69054767     0.07800
C459        C  0.08784995  0.33095969  0.69015535     0.01600
H460        H  0.07146434  0.31805846  0.69888342     0.09200
H461        H  0.09120222  0.33646490  0.68621027     0.08300
N462        N  0.09792838  0.29958784  0.71797140    -0.35500
N463        N  0.10683314  0.30044502  0.71996602    -0.27700
C464        C  0.10949687  0.29317357  0.72528659    -0.02900
C465        C  0.10197799  0.28743443  0.72683626     0.05700
C466        C  0.09472548  0.29172062  0.72211964     0.03800
H467        H  0.11647055  0.29213281  0.72780897     0.08900
H468        H  0.08770610  0.28919355  0.72154336     0.07700
N469        N  0.37556938  0.20027522  0.69869868    -0.26700
N470        N  0.37912856  0.19599527  0.69133214    -0.34500
C471        C  0.37313520  0.18957255  0.68817998     0.01700
C472        C  0.36540769  0.18970766  0.69386831     0.07700
C473        C  0.36716678  0.19660866  0.70049171    -0.05400
H474        H  0.37455672  0.18477445  0.68248629     0.08400
H475        H  0.36282711  0.19860260  0.70633588     0.09600
Cu476      Cu  0.39257863  0.19777251  0.68693294     0.44200
Cu477      Cu  0.38302729  0.21030674  0.70602559     0.42000
Cu478      Cu  0.40816349  0.21127509  0.70131005     0.43900
N479        N  0.40674379  0.19737535  0.68544557    -0.34100
N480        N  0.41258705  0.20194584  0.69090216    -0.28300
C481        C  0.42125638  0.19927498  0.68867710    -0.04400
C482        C  0.42078502  0.19273061  0.68147114     0.07800
C483        C  0.41147374  0.19175552  0.67961256     0.01600
H484        H  0.42741360  0.20178504  0.69215906     0.09200
H485        H  0.40831344  0.18700364  0.67465050     0.08300
N486        N  0.40112542  0.22025886  0.71046884    -0.35500
N487        N  0.39209316  0.21993024  0.71191054    -0.27700
C488        C  0.38965334  0.22694296  0.71767853    -0.02900
C489        C  0.39747691  0.23193356  0.72008686     0.05700
C490        C  0.40465125  0.22748882  0.71541044     0.03800
H491        H  0.38263919  0.22834393  0.71988916     0.08900
H492        H  0.41184881  0.22951641  0.71537063     0.07700
N493        N  0.30738617  0.13081931  0.70095281    -0.26700
N494        N  0.31113791  0.12798155  0.69301945    -0.34500
C495        C  0.31754278  0.13421773  0.69029478     0.01700
C496        C  0.31785503  0.14135626  0.69687436     0.07700
C497        C  0.31130683  0.13896478  0.70353944    -0.05400
H498        H  0.32187762  0.13339663  0.68417417     0.08400
H499        H  0.30964922  0.14274530  0.70989514     0.09600
Cu500      Cu  0.30814780  0.11510269  0.68722261     0.44200
Cu501      Cu  0.29748027  0.12293408  0.70780315     0.42000
Cu502      Cu  0.29383895  0.09855512  0.70055612     0.43900
N503        N  0.30737783  0.10092824  0.68457132    -0.34100
N504        N  0.30258857  0.09475547  0.68949406    -0.28300
C505        C  0.30488870  0.08607458  0.68654130    -0.04400
C506        C  0.31145997  0.08690537  0.67948853     0.07800
C507        C  0.31278517  0.09641139  0.67842520     0.01600
H508        H  0.30228049  0.07966051  0.68958670     0.09200
H509        H  0.31771107  0.09983174  0.67386665     0.08300
N510        N  0.28609595  0.10532267  0.71095392    -0.35500
N511        N  0.28747279  0.11417544  0.71333538    -0.27700
C512        C  0.28129221  0.11666235  0.71988294    -0.02900
C513        C  0.27573371  0.10904786  0.72184436     0.05700
C514        C  0.27897853  0.10193962  0.71605805     0.03800
H515        H  0.28089567  0.12356706  0.72299117     0.08900
H516        H  0.27628622  0.09489416  0.71548769     0.07700
N517        N  0.37978893  0.32018249  0.77812361    -0.26700
N518        N  0.38252041  0.32357797  0.78625866    -0.34500
C519        C  0.37613003  0.32947179  0.78957130     0.01700
C520        C  0.36895071  0.32986936  0.78320317     0.07700
C521        C  0.37147954  0.32387869  0.77598823    -0.05400
H522        H  0.37689376  0.33342891  0.79598751     0.08400
H523        H  0.36767450  0.32245136  0.76961586     0.09600
Cu524      Cu  0.39520586  0.32103079  0.79202476     0.44200
Cu525      Cu  0.38807957  0.31093582  0.77079330     0.42000
Cu526      Cu  0.41190106  0.30689598  0.78022786     0.43900
N527        N  0.40871501  0.32025492  0.79615271    -0.34100
N528        N  0.41508557  0.31514703  0.79192726    -0.28300
C529        C  0.42325142  0.31666809  0.79623487    -0.04400
C530        C  0.42185173  0.32311702  0.80341031     0.07800
C531        C  0.41256447  0.32520651  0.80310767     0.01600
H532        H  0.42973874  0.31354292  0.79413147     0.09200
H533        H  0.40885721  0.33009834  0.80751952     0.08300
N534        N  0.40575916  0.29936411  0.76926717    -0.35500
N535        N  0.39729991  0.30089643  0.76606049    -0.27700
C536        C  0.39520959  0.29435936  0.75964728    -0.02900
C537        C  0.40265537  0.28837347  0.75870222     0.05700
C538        C  0.40926159  0.29179069  0.76485300     0.03800
H539        H  0.38859911  0.29387337  0.75614979     0.08900
H540        H  0.41595274  0.28875050  0.76633030     0.07700
N541        N  0.31130687  0.38805028  0.78937719    -0.26700
N542        N  0.31626790  0.39149364  0.79632317    -0.34500
C543        C  0.32297079  0.38539918  0.79852352     0.01700
C544        C  0.32224248  0.37778211  0.79259010     0.07700
C545        C  0.31475986  0.37967273  0.78686482    -0.05400
H546        H  0.32826071  0.38665735  0.80373421     0.08400
H547        H  0.31214916  0.37541934  0.78117291     0.09600
Cu548      Cu  0.31445637  0.40483463  0.80144602     0.44200
Cu549      Cu  0.30057684  0.39544155  0.78354532     0.42000
Cu550      Cu  0.29744924  0.42008969  0.79038122     0.43900
N551        N  0.31313230  0.41888119  0.80440467    -0.34100
N552        N  0.30704832  0.42458192  0.80048019    -0.28300
C553        C  0.30842794  0.43328597  0.80390224    -0.04400
C554        C  0.31576247  0.43299354  0.81019075     0.07800
C555        C  0.31853856  0.42373754  0.81030146     0.01600
H556        H  0.30450217  0.43939955  0.80183696     0.09200
H557        H  0.32414949  0.42071013  0.81429359     0.08300
N558        N  0.28894130  0.41288701  0.78086246    -0.35500
N559        N  0.29014980  0.40394568  0.77872093    -0.27700
C560        C  0.28338994  0.40111647  0.77296738    -0.02900
C561        C  0.27760225  0.40859052  0.77126938     0.05700
C562        C  0.28133268  0.41599541  0.77633912     0.03800
H563        H  0.28273134  0.39406429  0.77026404     0.08900
H564        H  0.27857223  0.42301747  0.77692570     0.07700
N565        N  0.36060374  0.66898392  0.98568726    -0.26700
N566        N  0.36080860  0.66098123  0.98105743    -0.34500
C567        C  0.35561494  0.66191263  0.97323653     0.01700
C568        C  0.35192245  0.67093268  0.97308001     0.07700
C569        C  0.35528962  0.67516513  0.98108762    -0.05400
H570        H  0.35424167  0.65631640  0.96831659     0.08400
H571        H  0.35353566  0.68205001  0.98372177     0.09600
Cu572      Cu  0.36750354  0.64927106  0.98680582     0.44200
Cu573      Cu  0.36542134  0.67040876  0.99913720     0.42000
Cu574      Cu  0.37042878  0.65001049  0.01271925     0.43900
N575        N  0.37537574  0.63971728  0.99466296    -0.34100
N576        N  0.37659428  0.64005291  0.00387219    -0.28300
C577        C  0.38264278  0.63329302  0.00637156    -0.04400
C578        C  0.38533645  0.62843281  0.99839290     0.07800
C579        C  0.38054465  0.63269555  0.99113890     0.01600
H580        H  0.38500072  0.63210007  0.01346967     0.09200
H581        H  0.38101420  0.63101679  0.98375724     0.08300
N582        N  0.36421187  0.66199975  0.01840746    -0.35500
N583        N  0.36310533  0.66962947  0.01328582    -0.27700
C584        C  0.35811381  0.67592370  0.01805441    -0.02900
C585        C  0.35583308  0.67216304  0.02664345     0.05700
C586        C  0.35988970  0.66331063  0.02670963     0.03800
H587        H  0.35567268  0.68246463  0.01512310     0.08900
H588        H  0.35922474  0.65801510  0.03209303     0.07700
C589        C  0.43288765  0.57910705  0.99752280     0.80800
N590        N  0.43294924  0.57317177  0.99002082    -0.77500
C591        C  0.43909221  0.56592811  0.98962614     0.83300
N592        N  0.44524267  0.56474358  0.99675792    -0.77400
C593        C  0.44533369  0.57067640  0.00421917     0.83400
N594        N  0.43910216  0.57780207  0.00456852    -0.79100
C595        C  0.43663459  0.51180312  0.92629958     0.80800
N596        N  0.44316151  0.50488808  0.92621633    -0.77500
C597        C  0.44972453  0.50449400  0.93308196     0.83300
N598        N  0.44957833  0.51097028  0.94009591    -0.77400
C599        C  0.44311863  0.51789325  0.94025419     0.83400
N600        N  0.43672766  0.51829823  0.93329160    -0.79100
N601        N  0.35457421  0.52577379  0.84489652    -0.26700
N602        N  0.35931513  0.53101840  0.85081192    -0.34500
C603        C  0.35711332  0.54009473  0.84918004     0.01700
C604        C  0.35068835  0.54044007  0.84189654     0.07700
C605        C  0.34932457  0.53120385  0.83940172    -0.05400
H606        H  0.35984984  0.54597228  0.85307993     0.08400
H607        H  0.34466407  0.52851361  0.83412669     0.09600
Cu608      Cu  0.36823962  0.52480412  0.86069667     0.44200
Cu609      Cu  0.35453588  0.51142673  0.84476402     0.42000
Cu610      Cu  0.36816146  0.49829681  0.86013498     0.43900
N611        N  0.37679665  0.51595758  0.86877141    -0.34100
N612        N  0.37687843  0.50666845  0.86830272    -0.28300
C613        C  0.38355942  0.50335947  0.87397908    -0.04400
C614        C  0.38787213  0.51082623  0.87833364     0.07800
C615        C  0.38337762  0.51870822  0.87489383     0.01600
H616        H  0.38514130  0.49600463  0.87488732     0.09200
H617        H  0.38492986  0.52593631  0.87654130     0.08300
N618        N  0.35864569  0.49194853  0.85113664    -0.35500
N619        N  0.35353452  0.49713055  0.84550129    -0.27700
C620        C  0.34780088  0.49163623  0.84059312    -0.02900
C621        C  0.34936654  0.48244425  0.84316660     0.05700
C622        C  0.35634308  0.48286614  0.84986110     0.03800
H623        H  0.34293070  0.49418334  0.83543126     0.08900
H624        H  0.35943006  0.47704150  0.85357273     0.07700
C625        C  0.50237366  0.43994027  0.92363343     0.80800
N626        N  0.50937254  0.44049048  0.92995387    -0.77500
C627        C  0.50959712  0.44740973  0.93650573     0.83300
N628        N  0.50278043  0.45401660  0.93655936    -0.77400
C629        C  0.49579399  0.45367432  0.93012761     0.83400
N630        N  0.49558854  0.44654496  0.92376708    -0.79100
N631        N  0.48468932  0.35124170  0.84925084    -0.26700
N632        N  0.47979262  0.35893413  0.85059018    -0.34500
C633        C  0.47139001  0.35769668  0.84662939     0.01700
C634        C  0.47114857  0.34880506  0.84260088     0.07700
C635        C  0.47970468  0.34498649  0.84444038    -0.05400
H636        H  0.46599350  0.36294136  0.84645904     0.08400
H637        H  0.48228979  0.33824163  0.84217398     0.09600
Cu638      Cu  0.48562684  0.37050121  0.85748238     0.44200
Cu639      Cu  0.49834704  0.34976146  0.85260821     0.42000
Cu640      Cu  0.51143176  0.36916096  0.85988366     0.43900
N641        N  0.49382898  0.37978111  0.86533396    -0.34100
N642        N  0.50293748  0.37924283  0.86620043    -0.28300
C643        C  0.50578240  0.38586221  0.87228528    -0.04400
C644        C  0.49815940  0.39082763  0.87544768     0.07800
C645        C  0.49071682  0.38678967  0.87084413     0.01600
H646        H  0.51288808  0.38681081  0.87442345     0.09200
H647        H  0.48350733  0.38861396  0.87166804     0.08300
N648        N  0.51754182  0.35724797  0.85398625    -0.35500
N649        N  0.51244389  0.34992894  0.85173271    -0.27700
C650        C  0.51770859  0.34341963  0.84758044    -0.02900
C651        C  0.52664604  0.34672673  0.84713061     0.05700
C652        C  0.52633190  0.35553941  0.85130809     0.03800
H653        H  0.51508259  0.33695418  0.84465424     0.08900
H654        H  0.53195506  0.36047922  0.85198673     0.07700
N655        N  0.64273154  0.35277633  0.00898495    -0.26700
N656        N  0.64191114  0.36094608  0.01324359    -0.34500
C657        C  0.64669850  0.36056554  0.02138328     0.01700
C658        C  0.65073791  0.35172499  0.02212542     0.07700
C659        C  0.64801293  0.34703799  0.01413355    -0.05400
H660        H  0.64749292  0.36637914  0.02618181     0.08400
H661        H  0.65011177  0.34010044  0.01193294     0.09600
Cu662      Cu  0.63482038  0.37200980  0.00669525     0.44200
Cu663      Cu  0.63851231  0.35025848  0.99551354     0.42000
Cu664      Cu  0.63166762  0.36906299  0.98083053     0.43900
N665        N  0.62689560  0.38085762  0.99804884    -0.34100
N666        N  0.62559306  0.37970996  0.98891319    -0.28300
C667        C  0.61966924  0.38634694  0.98583691    -0.04400
C668        C  0.61717300  0.39200243  0.99333371     0.07800
C669        C  0.62192244  0.38831102  0.00092859     0.01600
H670        H  0.61735758  0.38700459  0.97865322     0.09200
H671        H  0.62161585  0.39073966  0.00810779     0.08300
N672        N  0.63786258  0.35685332  0.97559552    -0.35500
N673        N  0.63984521  0.34979419  0.98123081    -0.27700
C674        C  0.64443815  0.34316987  0.97648054    -0.02900
C675        C  0.64548227  0.34611198  0.96733547     0.05700
C676        C  0.64117304  0.35483335  0.96696952     0.03800
H677        H  0.64734132  0.33694006  0.97964874     0.08900
H678        H  0.64091992  0.35956068  0.96104696     0.07700
C679        C  0.57103356  0.44270375  0.99120425     0.80800
N680        N  0.56432178  0.44348381  0.98456741    -0.77500
C681        C  0.55796400  0.45050948  0.98496025     0.83300
N682        N  0.55841863  0.45687227  0.99206818    -0.77400
C683        C  0.56508113  0.45619501  0.99879374     0.83400
N684        N  0.57134000  0.44906209  0.99833148    -0.79100
C685        C  0.57102393  0.51085659  0.06156526     0.80800
N686        N  0.57047425  0.50420722  0.05472295    -0.77500
C687        C  0.56365671  0.50461102  0.04812122     0.83300
N688        N  0.55721244  0.51157585  0.04861919    -0.77400
C689        C  0.55757148  0.51810534  0.05558015     0.83400
N690        N  0.56456779  0.51775942  0.06190940    -0.79100
N691        N  0.64775302  0.50012519  0.14744407    -0.26700
N692        N  0.64505620  0.49502566  0.14023537    -0.34500
C693        C  0.64905397  0.48648081  0.14094510     0.01700
C694        C  0.65455375  0.48636318  0.14897372     0.07700
C695        C  0.65346837  0.49514305  0.15287514    -0.05400
H696        H  0.64836468  0.48094805  0.13580810     0.08400
H697        H  0.65699340  0.49798101  0.15892275     0.09600
Cu698      Cu  0.63680241  0.50113158  0.12977824     0.44200
Cu699      Cu  0.64553926  0.51420851  0.14861803     0.42000
Cu700      Cu  0.63706178  0.52766014  0.12991546     0.43900
N701        N  0.62857177  0.50990392  0.12136188    -0.34100
N702        N  0.62859456  0.51920448  0.12149982    -0.28300
C703        C  0.62219595  0.52236475  0.11539972    -0.04400
C704        C  0.61797602  0.51476340  0.11114852     0.07800
C705        C  0.62220321  0.50699089  0.11511028     0.01600
H706        H  0.62076382  0.52969489  0.11411406     0.09200
H707        H  0.62069822  0.49971563  0.11363937     0.08300
N708        N  0.64547908  0.53346259  0.14034360    -0.35500
N709        N  0.64820124  0.52821166  0.14743648    -0.27700
C710        C  0.65388388  0.53309889  0.15297347    -0.02900
C711        C  0.65486850  0.54198007  0.14928661     0.05700
C712        C  0.64938317  0.54201974  0.14125850     0.03800
H713        H  0.65727163  0.53021472  0.15908746     0.08900
H714        H  0.64853605  0.54771649  0.13632741     0.07700
C715        C  0.50029138  0.57654794  0.06694825     0.80800
N716        N  0.50711356  0.57007581  0.06582090    -0.77500
C717        C  0.50664724  0.56362155  0.05881184     0.83300
N718        N  0.49933896  0.56378934  0.05280417    -0.77400
C719        C  0.49249614  0.57026502  0.05379763     0.83400
N720        N  0.49298427  0.57657646  0.06093717    -0.79100
N721        N  0.51511884  0.64914424  0.15684597    -0.26700
N722        N  0.51997678  0.64595449  0.14968554    -0.34500
C723        C  0.52890254  0.64839649  0.15097198     0.01700
C724        C  0.52957117  0.65343391  0.15929434     0.07700
C725        C  0.52068583  0.65370340  0.16279843    -0.05400
H726        H  0.53440747  0.64695790  0.14604757     0.08400
H727        H  0.51831527  0.65724540  0.16905618     0.09600
Cu728      Cu  0.51358667  0.63918608  0.13837142     0.44200
Cu729      Cu  0.50098807  0.64866163  0.15772309     0.42000
Cu730      Cu  0.48799947  0.64138492  0.13788754     0.43900
N731        N  0.50490553  0.63286245  0.12844008    -0.34100
N732        N  0.49579495  0.63375681  0.12825018    -0.28300
C733        C  0.49240217  0.62857376  0.12115677    -0.04400
C734        C  0.49966534  0.62412956  0.11666888     0.07800
C735        C  0.50749141  0.62703489  0.12147567     0.01600
H736        H  0.48512867  0.62789813  0.11955120     0.09200
H737        H  0.51455303  0.62495533  0.12012308     0.08300
N738        N  0.48222197  0.64891546  0.14893774    -0.35500
N739        N  0.48713997  0.65136339  0.15633657    -0.27700
C740        C  0.48200147  0.65675056  0.16200626    -0.02900
C741        C  0.47336202  0.65777383  0.15802310     0.05700
C742        C  0.47371188  0.65265960  0.14975046     0.03800
H743        H  0.48454329  0.65999198  0.16835763     0.08900
H744        H  0.46833554  0.65206112  0.14451376     0.07700
N745        N  0.62059599  0.22229444  0.68661974    -0.26700
N746        N  0.61660095  0.21544194  0.68191977    -0.34500
C747        C  0.62167364  0.21335274  0.67436140     0.01700
C748        C  0.62927760  0.21918320  0.67418849     0.07700
C749        C  0.62842456  0.22477406  0.68211475    -0.05400
H750        H  0.61973388  0.20819155  0.66916629     0.08400
H751        H  0.63290494  0.23046147  0.68421764     0.09600
Cu752      Cu  0.60391995  0.20989743  0.68520004     0.44200
Cu753      Cu  0.61429067  0.22801645  0.69840056     0.42000
Cu754      Cu  0.59043862  0.21926161  0.70384102     0.43900
N755        N  0.59076105  0.20539623  0.68813782    -0.34100
N756        N  0.58562744  0.20866693  0.69505532    -0.28300
C757        C  0.57739946  0.20422702  0.69491034    -0.04400
C758        C  0.57741169  0.19797023  0.68745317     0.07800
C759        C  0.58599977  0.19892787  0.68335376     0.01600
H760        H  0.57177942  0.20559883  0.69971884     0.09200
H761        H  0.58864139  0.19521465  0.67730857     0.08300
N762        N  0.59754922  0.22951534  0.71135436    -0.35500
N763        N  0.60606193  0.23240609  0.70953651    -0.27700
C764        C  0.60851795  0.23881776  0.71597231    -0.02900
C765        C  0.60121502  0.24010717  0.72208849     0.05700
C766        C  0.59437236  0.23412251  0.71893900     0.03800
H767        H  0.61511598  0.24236561  0.71608773     0.08900
H768        H  0.58760650  0.23310288  0.72199026     0.07700
N769        N  0.68682707  0.22616822  0.61442573    -0.26700
N770        N  0.68075042  0.22080666  0.61013388    -0.34500
C771        C  0.67345610  0.21944254  0.61573487     0.01700
C772        C  0.67496085  0.22421059  0.62404277     0.07700
C773        C  0.68353733  0.22842454  0.62298069    -0.05400
H774        H  0.66755010  0.21520808  0.61385985     0.08400
H775        H  0.68713415  0.23272761  0.62804486     0.09600
Cu776      Cu  0.68288251  0.21541104  0.59699462     0.44200
Cu777      Cu  0.69909394  0.22958222  0.60778340     0.42000
Cu778      Cu  0.70391724  0.21916146  0.58400160     0.43900
N779        N  0.68564971  0.20918224  0.58435947    -0.34100
N780        N  0.69337895  0.21007644  0.57951417    -0.28300
C781        C  0.69280544  0.20448983  0.57186738    -0.04400
C782        C  0.68424887  0.20003721  0.57198415     0.07800
C783        C  0.67996722  0.20322199  0.57999260     0.01600
H784        H  0.69814109  0.20379126  0.56660437     0.09200
H785        H  0.67323666  0.20122193  0.58260572     0.08300
N786        N  0.71241277  0.22880247  0.59109191    -0.35500
N787        N  0.71061964  0.23219960  0.59955492    -0.27700
C788        C  0.71758051  0.23777996  0.60224351    -0.02900
C789        C  0.72409879  0.23804498  0.59519976     0.05700
C790        C  0.72059615  0.23231181  0.58818412     0.03800
H791        H  0.71787085  0.24136653  0.60892119     0.08900
H792        H  0.72387196  0.23059872  0.58158485     0.07700
N793        N  0.62612354  0.30466859  0.80723488    -0.26700
N794        N  0.62217824  0.31157539  0.81190070    -0.34500
C795        C  0.62836242  0.31544640  0.81771494     0.01700
C796        C  0.63664242  0.31074189  0.81668928     0.07700
C797        C  0.63499152  0.30391489  0.80998150    -0.05400
H798        H  0.62683464  0.32108920  0.82253818     0.08400
H799        H  0.63980077  0.29872547  0.80737942     0.09600
Cu800      Cu  0.60840982  0.31487996  0.81072341     0.44200
Cu801      Cu  0.61880704  0.29679210  0.79761856     0.42000
Cu802      Cu  0.59345479  0.30039576  0.79662257     0.43900
N803        N  0.59426846  0.31615173  0.81060856    -0.34100
N804        N  0.58860718  0.31068116  0.80583052    -0.28300
C805        C  0.57983881  0.31298185  0.80808039    -0.04400
C806        C  0.58009064  0.32027214  0.81453452     0.07800
C807        C  0.58934707  0.32208454  0.81591440     0.01600
H808        H  0.57376597  0.30956510  0.80528678     0.09200
H809        H  0.59233524  0.32713613  0.82068669     0.08300
N810        N  0.60094561  0.29163421  0.78765236    -0.35500
N811        N  0.61002057  0.29053556  0.78805623    -0.27700
C812        C  0.61274587  0.28490082  0.78105384    -0.02900
C813        C  0.60507034  0.28224976  0.77596557     0.05700
C814        C  0.59767961  0.28662091  0.78035350     0.03800
H815        H  0.61985078  0.28295173  0.77973414     0.08900
H816        H  0.59049601  0.28636026  0.77828527     0.07700
N817        N  0.69587064  0.30522803  0.87221294    -0.26700
N818        N  0.69193074  0.31290277  0.87544895    -0.34500
C819        C  0.68658864  0.31663343  0.86872189     0.01700
C820        C  0.68719128  0.31097587  0.86085138     0.07700
C821        C  0.69318325  0.30382904  0.86331118    -0.05400
H822        H  0.68207387  0.32258335  0.86976512     0.08400
H823        H  0.69500095  0.29775133  0.85916852     0.09600
Cu824      Cu  0.69248818  0.31648250  0.88941084     0.44200
Cu825      Cu  0.70378122  0.29672984  0.88064262     0.42000
Cu826      Cu  0.70356391  0.30043215  0.90604256     0.43900
N827        N  0.69031157  0.31663665  0.90367213    -0.34100
N828        N  0.69389191  0.31070243  0.90980625    -0.28300
C829        C  0.69006868  0.31240939  0.91827548    -0.04400
C830        C  0.68381372  0.31974742  0.91733055     0.07800
C831        C  0.68420407  0.32221499  0.90799329     0.01600
H832        H  0.69162457  0.30851516  0.92458786     0.09200
H833        H  0.68012110  0.32750562  0.90447486     0.08300
N834        N  0.71293264  0.29166118  0.89907223    -0.35500
N835        N  0.71277168  0.29044677  0.88987681    -0.27700
C836        C  0.71997168  0.28515765  0.88728150    -0.02900
C837        C  0.72499913  0.28285594  0.89516210     0.05700
C838        C  0.72031863  0.28703785  0.90256856     0.03800
H839        H  0.72156844  0.28337052  0.88008870     0.08900
H840        H  0.72234021  0.28705798  0.90987091     0.07700
N841        N  0.81214028  0.29474126  0.61849857    -0.26700
N842        N  0.81581324  0.30273900  0.61574973    -0.34500
C843        C  0.82225753  0.30541224  0.62194061     0.01700
C844        C  0.82273192  0.29876476  0.62899064     0.07700
C845        C  0.81619890  0.29207032  0.62658574    -0.05400
H846        H  0.82655466  0.31154772  0.62109776     0.08400
H847        H  0.81467193  0.28564496  0.63029549     0.09600
Cu848      Cu  0.81299888  0.30890117  0.60301644     0.44200
Cu849      Cu  0.80227314  0.28797627  0.61038557     0.42000
Cu850      Cu  0.79999765  0.29601805  0.58575077     0.43900
N851        N  0.81278557  0.31232892  0.58900717    -0.34100
N852        N  0.80846812  0.30744647  0.58246634    -0.28300
C853        C  0.81091977  0.31086125  0.57399918    -0.04400
C854        C  0.81705571  0.31822891  0.57536603     0.07800
C855        C  0.81800635  0.31894934  0.58496222     0.01600
H856        H  0.80862827  0.30801435  0.56736650     0.09200
H857        H  0.82257457  0.32360038  0.58875090     0.08300
N858        N  0.79197989  0.28546637  0.59191792    -0.35500
N859        N  0.79273835  0.28281955  0.60078895    -0.27700
C860        C  0.78623123  0.27637946  0.60267021    -0.02900
C861        C  0.78112869  0.27480060  0.59462481     0.05700
C862        C  0.78499039  0.28065365  0.58792920     0.03800
H863        H  0.78525596  0.27315203  0.60946033     0.08900
H864        H  0.78269802  0.28157491  0.58076743     0.07700
N865        N  0.88139249  0.30197227  0.68759379    -0.26700
N866        N  0.88463204  0.30908865  0.68268016    -0.34500
C867        C  0.87889318  0.31089448  0.67553067     0.01700
C868        C  0.87166606  0.30458225  0.67584600     0.07700
C869        C  0.87346858  0.29897429  0.68359256    -0.05400
H870        H  0.87998899  0.31636307  0.67039812     0.08400
H871        H  0.86930240  0.29324350  0.68618350     0.09600
Cu872      Cu  0.89690227  0.31586060  0.68554509     0.44200
Cu873      Cu  0.88824450  0.29718546  0.69951546     0.42000
Cu874      Cu  0.91116221  0.30770839  0.70459575     0.43900
N875        N  0.90978664  0.32133587  0.68842014    -0.34100
N876        N  0.91514309  0.31841877  0.69534081    -0.28300
C877        C  0.92314879  0.32324008  0.69499651    -0.04400
C878        C  0.92279339  0.32942919  0.68747193     0.07800
C879        C  0.91419657  0.32800118  0.68349749     0.01600
H880        H  0.92887743  0.32218692  0.69975588     0.09200
H881        H  0.91136934  0.33142745  0.67736746     0.08300
N882        N  0.90487656  0.29720970  0.71271237    -0.35500
N883        N  0.89654012  0.29379116  0.71097851    -0.27700
C884        C  0.89429601  0.28765388  0.71775112    -0.02900
C885        C  0.90156300  0.28700545  0.72400873     0.05700
C886        C  0.90818775  0.29313820  0.72058518     0.03800
H887        H  0.88782642  0.28387779  0.71805678     0.08900
H888        H  0.91480740  0.29472200  0.72372505     0.07700
N889        N  0.80867528  0.21954602  0.87337777    -0.26700
N890        N  0.81199894  0.21143088  0.87627900    -0.34500
C891        C  0.81824930  0.20830355  0.87008979     0.01700
C892        C  0.81899267  0.21476942  0.86291473     0.07700
C893        C  0.81278319  0.22182840  0.86520401    -0.05400
H894        H  0.82235891  0.20204291  0.87106453     0.08400
H895        H  0.81163393  0.22831509  0.86145701     0.09600
Cu896      Cu  0.80937255  0.20582305  0.88932023     0.44200
Cu897      Cu  0.79934306  0.22717054  0.88141748     0.42000
Cu898      Cu  0.79672444  0.21972722  0.90602779     0.43900
N899        N  0.80928016  0.20309947  0.90351129    -0.34100
N900        N  0.80496011  0.20834301  0.90976440    -0.28300
C901        C  0.80723836  0.20531731  0.91840899    -0.04400
C902        C  0.81329175  0.19781910  0.91750186     0.07800
C903        C  0.81438592  0.19661707  0.90795568     0.01600
H904        H  0.80488702  0.20853343  0.92484713     0.09200
H905        H  0.81891356  0.19168990  0.90447161     0.08300
N906        N  0.78904302  0.23036910  0.89974299    -0.35500
N907        N  0.79000198  0.23294630  0.89087933    -0.27700
C908        C  0.78385129  0.23973131  0.88895552    -0.02900
C909        C  0.77876554  0.24157323  0.89696891     0.05700
C910        C  0.78225437  0.23550640  0.90367828     0.03800
H911        H  0.78312677  0.24302104  0.88216411     0.08900
H912        H  0.77994072  0.23476813  0.91085332     0.07700
N913        N  0.88122073  0.22549266  0.80947426    -0.26700
N914        N  0.88424346  0.21837054  0.81450301    -0.34500
C915        C  0.87746756  0.21532494  0.82012592     0.01700
C916        C  0.86973494  0.22082147  0.81861419     0.07700
C917        C  0.87236017  0.22723938  0.81181087    -0.05400
H918        H  0.87826108  0.20972515  0.82517034     0.08400
H919        H  0.86819902  0.23281246  0.80887088     0.09600
Cu920      Cu  0.89767042  0.21374318  0.81405283     0.44200
Cu921      Cu  0.88984174  0.23216452  0.79997616     0.42000
Cu922      Cu  0.91455862  0.22545280  0.79916378     0.43900
N923        N  0.91158140  0.21093139  0.81435201    -0.34100
N924        N  0.91789348  0.21524929  0.80923091    -0.28300
C925        C  0.92628445  0.21200756  0.81177905    -0.04400
C926        C  0.92510535  0.20533292  0.81877921     0.07800
C927        C  0.91570179  0.20485312  0.82018559     0.01600
H928        H  0.93274506  0.21437346  0.80880121     0.09200
H929        H  0.91209073  0.20058814  0.82527135     0.08300
N930        N  0.90829711  0.23509133  0.79000154    -0.35500
N931        N  0.89942891  0.23732686  0.79047245    -0.27700
C932        C  0.89741499  0.24346373  0.78365320    -0.02900
C933        C  0.90533394  0.24529292  0.77855350     0.05700
C934        C  0.91213715  0.23986086  0.78279078     0.03800
H935        H  0.89060167  0.24635879  0.78252712     0.08900
H936        H  0.91931275  0.23934780  0.78073526     0.07700
N937        N  0.69707833  0.63081766  0.20307349    -0.26700
N938        N  0.69367293  0.62747291  0.19517413    -0.34500
C939        C  0.68642058  0.63268160  0.19253678     0.01700
C940        C  0.68516867  0.63970538  0.19907910     0.07700
C941        C  0.69208183  0.63835038  0.20567833    -0.05400
H942        H  0.68213430  0.63118659  0.18650483     0.08400
H943        H  0.69316219  0.64226838  0.21207716     0.09600
Cu944      Cu  0.69783062  0.61502752  0.18930726     0.44200
Cu945      Cu  0.70761559  0.62395990  0.21011008     0.42000
Cu946      Cu  0.71030999  0.59892519  0.20407509     0.43900
N947        N  0.69855363  0.60089085  0.18676583    -0.34100
N948        N  0.70257979  0.59476535  0.19238938    -0.28300
C949        C  0.70036820  0.58606424  0.18945576    -0.04400
C950        C  0.69467941  0.58683350  0.18163769     0.07800
C951        C  0.69374209  0.59634458  0.18015127     0.01600
H952        H  0.70243721  0.57967959  0.19296739     0.09200
H953        H  0.68939646  0.59977570  0.17502306     0.08300
N954        N  0.71817774  0.60599385  0.21416104    -0.35500
N955        N  0.71736929  0.61506216  0.21595960    -0.27700
C956        C  0.72383348  0.61757588  0.22222464    -0.02900
C957        C  0.72894117  0.60973971  0.22459905     0.05700
C958        C  0.72514141  0.60250050  0.21939224     0.03800
H959        H  0.72470027  0.62461954  0.22488334     0.08900
H960        H  0.72743134  0.59528459  0.21921816     0.07700
N961        N  0.62469539  0.69562974  0.20777769    -0.26700
N962        N  0.62109434  0.69040061  0.20108168    -0.34500
C963        C  0.62749816  0.68432746  0.19802923     0.01700
C964        C  0.63553998  0.68575943  0.20309067     0.07700
C965        C  0.63351639  0.69300447  0.20921480    -0.05400
H966        H  0.62621195  0.67898443  0.19281646     0.08400
H967        H  0.63800039  0.69594211  0.21452316     0.09600
Cu968      Cu  0.60734702  0.69101816  0.19721516     0.44200
Cu969      Cu  0.61700203  0.70558047  0.21479400     0.42000
Cu970      Cu  0.59201122  0.70626127  0.21043560     0.43900
N971        N  0.59317865  0.69139498  0.19541312    -0.34100
N972        N  0.58751090  0.69674393  0.20033915    -0.28300
C973        C  0.57876673  0.69486456  0.19772763    -0.04400
C974        C  0.57896383  0.68801547  0.19083110     0.07800
C975        C  0.58822631  0.68600916  0.18954722     0.01600
H976        H  0.57271370  0.69816541  0.20071361     0.09200
H977        H  0.59118037  0.68084716  0.18487208     0.08300
N978        N  0.59900700  0.71557811  0.21915511    -0.35500
N979        N  0.60804958  0.71530754  0.22047619    -0.27700
C980        C  0.61057725  0.72254868  0.22587509    -0.02900
C981        C  0.60278924  0.72764359  0.22815005     0.05700
C982        C  0.59553840  0.72301975  0.22380734     0.03800
H983        H  0.61762571  0.72403061  0.22790752     0.08900
H984        H  0.58834015  0.72505870  0.22378047     0.07700
N985        N  0.81453700  0.63574437  0.28733875    -0.26700
N986        N  0.81868052  0.63239585  0.29486962    -0.34500
C987        C  0.82529528  0.63836828  0.29762795     0.01700
C988        C  0.82538276  0.64589553  0.29152199     0.07700
C989        C  0.81846532  0.64399775  0.28505159    -0.05400
H990        H  0.82985803  0.63715525  0.30350957     0.08400
H991        H  0.81649131  0.64824475  0.27909508     0.09600
Cu992      Cu  0.81557713  0.61956491  0.30065029     0.44200
Cu993      Cu  0.80389790  0.62842383  0.28082486     0.42000
Cu994      Cu  0.79853651  0.60459360  0.28984046     0.43900
N995        N  0.81303580  0.60603751  0.30492517    -0.34100
N996        N  0.80700890  0.60034205  0.30093556    -0.28300
C997        C  0.80784463  0.59180078  0.30489679    -0.04400
C998        C  0.81471203  0.59221772  0.31169341     0.07800
C999        C  0.81779885  0.60136500  0.31150395     0.01600
H1000       H  0.80396692  0.58568029  0.30277466     0.09200
H1001       H  0.82343889  0.60432955  0.31549353     0.08300
N1002       N  0.79142328  0.61127711  0.27895628    -0.35500
N1003       N  0.79336674  0.61981141  0.27588157    -0.27700
C1004       C  0.78734984  0.62212321  0.26909338    -0.02900
C1005       C  0.78132949  0.61473128  0.26774113     0.05700
C1006       C  0.78412419  0.60794859  0.27410564     0.03800
H1007       H  0.78735002  0.62876265  0.26543221     0.08900
H1008       H  0.78098893  0.60116862  0.27526066     0.07700
N1009       N  0.88427319  0.70337494  0.29119647    -0.26700
N1010       N  0.88713763  0.70028789  0.29941595    -0.34500
C1011       C  0.88095471  0.69412223  0.30278311     0.01700
C1012       C  0.87385004  0.69325313  0.29633063     0.07700
C1013       C  0.87617689  0.69926932  0.28907529    -0.05400
H1014       H  0.88183589  0.69018098  0.30920099     0.08400
H1015       H  0.87249627  0.70029195  0.28255509     0.09600
Cu1016     Cu  0.90008647  0.70350361  0.30463855     0.44200
Cu1017     Cu  0.89224830  0.71222750  0.28307869     0.42000
Cu1018     Cu  0.91671828  0.71527196  0.28924371     0.43900
N1019       N  0.91411707  0.70439767  0.30725214    -0.34100
N1020       N  0.92031577  0.70815494  0.30156786    -0.28300
C1021       C  0.92882507  0.70618564  0.30492209    -0.04400
C1022       C  0.92787381  0.70096547  0.31309703     0.07800
C1023       C  0.91845793  0.70005324  0.31433640     0.01600
H1024       H  0.93520418  0.70810996  0.30147894     0.09200
H1025       H  0.91497915  0.69601178  0.31969131     0.08300
N1026       N  0.91013497  0.72222403  0.27816452    -0.35500
N1027       N  0.90127780  0.72107851  0.27617614    -0.27700
C1028       C  0.89888347  0.72693067  0.26923674    -0.02900
C1029       C  0.90655576  0.73206940  0.26664614     0.05700
C1030       C  0.91360633  0.72887060  0.27241991     0.03800
H1031       H  0.89195997  0.72751307  0.26644877     0.08900
H1032       H  0.92062608  0.73144822  0.27269257     0.07700
N1033       N  0.62049654  0.81855603  0.28325644    -0.26700
N1034       N  0.61719674  0.82348571  0.29033412    -0.34500
C1035       C  0.62340831  0.82997075  0.29285907     0.01700
C1036       C  0.63103671  0.82913422  0.28707869     0.07700
C1037       C  0.62895142  0.82182578  0.28103140    -0.05400
H1038       H  0.62233284  0.83502495  0.29840279     0.08400
H1039       H  0.63324521  0.81908100  0.27546138     0.09600
Cu1040     Cu  0.60423843  0.82151380  0.29597804     0.44200
Cu1041     Cu  0.61298473  0.80768937  0.27736547     0.42000
Cu1042     Cu  0.58888589  0.80461049  0.28564180     0.43900
N1043       N  0.59070255  0.81978382  0.30010134    -0.34100
N1044       N  0.58491063  0.81377129  0.29623046    -0.28300
C1045       C  0.57652058  0.81490295  0.30015219    -0.04400
C1046       C  0.57710742  0.82197846  0.30679517     0.07800
C1047       C  0.58621342  0.82487354  0.30656771     0.01600
H1048       H  0.57041420  0.81101625  0.29815851     0.09200
H1049       H  0.58932570  0.83048573  0.31056164     0.08300
N1050       N  0.59549758  0.79591380  0.27606166    -0.35500
N1051       N  0.60415654  0.79699959  0.27328404    -0.27700
C1052       C  0.60642697  0.78992264  0.26753553    -0.02900
C1053       C  0.59885828  0.78409254  0.26659339     0.05700
C1054       C  0.59203259  0.78811794  0.27206773     0.03800
H1055       H  0.61314527  0.78910354  0.26432523     0.08900
H1056       H  0.58512136  0.78548511  0.27322698     0.07700
N1057       N  0.69080483  0.88550391  0.28775238    -0.26700
N1058       N  0.68732772  0.88857959  0.29573999    -0.34500
C1059       C  0.68112959  0.88238315  0.29894787     0.01700
C1060       C  0.68057710  0.87503942  0.29265160     0.07700
C1061       C  0.68685672  0.87722105  0.28563445    -0.05400
H1062       H  0.67686580  0.88349459  0.30507864     0.08400
H1063       H  0.68812763  0.87334334  0.27924640     0.09600
Cu1064     Cu  0.68948447  0.90190785  0.30084577     0.44200
Cu1065     Cu  0.70006887  0.89341431  0.27994655     0.42000
Cu1066     Cu  0.70153288  0.91830309  0.28586317     0.43900
N1067       N  0.68886636  0.91623866  0.30253045    -0.34100
N1068       N  0.69281123  0.92231018  0.29679159    -0.28300
C1069       C  0.69000834  0.93099941  0.29913639    -0.04400
C1070       C  0.68407176  0.93032217  0.30673711     0.07800
C1071       C  0.68353531  0.92086172  0.30869719     0.01600
H1072       H  0.69198934  0.93731287  0.29545470     0.09200
H1073       H  0.67919739  0.91751296  0.31388383     0.08300
N1074       N  0.71031014  0.91162884  0.27637251    -0.35500
N1075       N  0.70974138  0.90259890  0.27434262    -0.27700
C1076       C  0.71678458  0.90025375  0.26867544    -0.02900
C1077       C  0.72207648  0.90814677  0.26700948     0.05700
C1078       C  0.71773953  0.91525916  0.27197322     0.03800
H1079       H  0.71809425  0.89322305  0.26616466     0.08900
H1080       H  0.72001578  0.92244457  0.27265842     0.07700
N1081       N  0.87732401  0.82038861  0.20883446    -0.26700
N1082       N  0.88059443  0.82559005  0.20194585    -0.34500
C1083       C  0.87462968  0.83252402  0.20009463     0.01700
C1084       C  0.86720191  0.83173218  0.20614306     0.07700
C1085       C  0.86913718  0.82394706  0.21162641    -0.05400
H1086       H  0.87583903  0.83794685  0.19494870     0.08400
H1087       H  0.86501399  0.82118884  0.21731704     0.09600
Cu1088     Cu  0.89339004  0.82370423  0.19591372     0.44200
Cu1089     Cu  0.88476235  0.80911170  0.21404043     0.42000
Cu1090     Cu  0.90868757  0.80615660  0.20519018     0.43900
N1091       N  0.90672163  0.82181267  0.19122010    -0.34100
N1092       N  0.91243140  0.81539287  0.19454251    -0.28300
C1093       C  0.92056504  0.81612815  0.19001494    -0.04400
C1094       C  0.91991759  0.82341307  0.18360479     0.07800
C1095       C  0.91103806  0.82683886  0.18458314     0.01600
H1096       H  0.92653824  0.81177695  0.19138777     0.09200
H1097       H  0.90790885  0.83258209  0.18078313     0.08300
N1098       N  0.90247845  0.79762621  0.21522568    -0.35500
N1099       N  0.89383866  0.79861146  0.21811378    -0.27700
C1100       C  0.89182603  0.79167935  0.22412754    -0.02900
C1101       C  0.89954291  0.78607186  0.22516801     0.05700
C1102       C  0.90619984  0.79006031  0.21945235     0.03800
H1103       H  0.88518128  0.79078798  0.22747835     0.08900
H1104       H  0.91314118  0.78752171  0.21824580     0.07700
N1105       N  0.81410992  0.89478497  0.21286128    -0.26700
N1106       N  0.81918435  0.89884389  0.20633216    -0.34500
C1107       C  0.82564739  0.89281481  0.20334368     0.01700
C1108       C  0.82467854  0.88452980  0.20825641     0.07700
C1109       C  0.81730162  0.88601641  0.21428331    -0.05400
H1110       H  0.83069115  0.89438097  0.19797006     0.08400
H1111       H  0.81435769  0.88105994  0.21917864     0.09600
Cu1112     Cu  0.81711475  0.91233425  0.20163839     0.44200
Cu1113     Cu  0.80288074  0.90157497  0.21889016     0.42000
Cu1114     Cu  0.79833793  0.92592345  0.21095060     0.43900
N1115       N  0.81416698  0.92577385  0.19729064    -0.34100
N1116       N  0.80730041  0.93091296  0.20058561    -0.28300
C1117       C  0.80724315  0.93919130  0.19600684    -0.04400
C1118       C  0.81442603  0.93919365  0.18954008     0.07800
C1119       C  0.81864499  0.93056438  0.19060085     0.01600
H1120       H  0.80229772  0.94474534  0.19722838     0.09200
H1121       H  0.82450298  0.92786475  0.18674453     0.08300
N1122       N  0.79025664  0.91856713  0.22063872    -0.35500
N1123       N  0.79182255  0.90980426  0.22326631    -0.27700
C1124       C  0.78508057  0.90707078  0.22914427    -0.02900
C1125       C  0.77899341  0.91445043  0.23037233     0.05700
C1126       C  0.78251118  0.92163628  0.22490234     0.03800
H1127       H  0.78467218  0.90019174  0.23230110     0.08900
H1128       H  0.77954692  0.92852854  0.22392101     0.07700
N1129       N  0.29356525  0.63536835  0.80900278    -0.26700
N1130       N  0.30036271  0.63152133  0.81383069    -0.34500
C1131       C  0.30267142  0.63719180  0.82094531     0.01700
C1132       C  0.29701975  0.64500743  0.82068823     0.07700
C1133       C  0.29131245  0.64363714  0.81298843    -0.05400
H1134       H  0.30780132  0.63549951  0.82619695     0.08400
H1135       H  0.28575066  0.64812956  0.81064617     0.09600
Cu1136     Cu  0.30535510  0.61817931  0.81144155     0.44200
Cu1137     Cu  0.28748977  0.62845405  0.79776456     0.42000
Cu1138     Cu  0.29446620  0.60372404  0.79392915     0.43900
N1139       N  0.30836577  0.60414410  0.80969250    -0.34100
N1140       N  0.30437823  0.59866780  0.80341042    -0.28300
C1141       C  0.30762124  0.58986639  0.80455339    -0.04400
C1142       C  0.31393149  0.58985874  0.81190905     0.07800
C1143       C  0.31419549  0.59905208  0.81495922     0.01600
H1144       H  0.30547566  0.58390278  0.80040924     0.09200
H1145       H  0.31819599  0.60185844  0.82071382     0.08300
N1146       N  0.28465701  0.61096123  0.78584395    -0.35500
N1147       N  0.28230819  0.61982350  0.78725908    -0.27700
C1148       C  0.27585828  0.62231073  0.78095203    -0.02900
C1149       C  0.27395943  0.61469581  0.77527372     0.05700
C1150       C  0.27967708  0.60760750  0.77857681     0.03800
H1151       H  0.27270106  0.62917649  0.78061075     0.08900
H1152       H  0.28017913  0.60052753  0.77591775     0.07700
N1153       N  0.28410341  0.69967920  0.88280160    -0.26700
N1154       N  0.29037104  0.69406769  0.88648929    -0.34500
C1155       C  0.29308932  0.68781894  0.88004602     0.01700
C1156       C  0.28828333  0.68950002  0.87182786     0.07700
C1157       C  0.28258851  0.69707599  0.87382965    -0.05400
H1158       H  0.29814680  0.68239131  0.88133840     0.08400
H1159       H  0.27779263  0.70048626  0.86911449     0.09600
Cu1160     Cu  0.29491579  0.69504217  0.90014238     0.44200
Cu1161     Cu  0.27853669  0.71057803  0.89064195     0.42000
Cu1162     Cu  0.28691054  0.71315030  0.91550917     0.43900
N1163       N  0.29929759  0.69633434  0.91382482    -0.34100
N1164       N  0.29664417  0.70301610  0.91964732    -0.28300
C1165       C  0.30114751  0.70182184  0.92787969    -0.04400
C1166       C  0.30681142  0.69395843  0.92712097     0.07800
C1167       C  0.30539848  0.69071460  0.91811610     0.01600
H1168       H  0.30034410  0.70630216  0.93394364     0.09200
H1169       H  0.30867693  0.68474724  0.91482243     0.08300
N1170       N  0.27732544  0.72197873  0.90878770    -0.35500
N1171       N  0.27460666  0.72107176  0.89995253    -0.27700
C1172       C  0.26881040  0.72811181  0.89780993    -0.02900
C1173       C  0.26770653  0.73371932  0.90562795     0.05700
C1174       C  0.27316198  0.72960233  0.91248175     0.03800
H1175       H  0.26558867  0.72902883  0.89102723     0.08900
H1176       H  0.27418544  0.73207661  0.91957594     0.07700
N1177       N  0.20564220  0.89073894  0.81207171    -0.26700
N1178       N  0.19879285  0.89414709  0.81712766    -0.34500
C1179       C  0.19615928  0.88772148  0.82345172     0.01700
C1180       C  0.20165788  0.87984439  0.82236388     0.07700
C1181       C  0.20761446  0.88201274  0.81507141    -0.05400
H1182       H  0.19082154  0.88885817  0.82863067     0.08400
H1183       H  0.21307306  0.87765653  0.81226596     0.09600
Cu1184     Cu  0.19390417  0.90763788  0.81551977     0.44200
Cu1185     Cu  0.21170587  0.89856080  0.80151428     0.42000
Cu1186     Cu  0.20353028  0.92290113  0.79752494     0.43900
N1187       N  0.19020055  0.92150468  0.81381957    -0.34100
N1188       N  0.19345575  0.92721951  0.80730733    -0.28300
C1189       C  0.18938369  0.93568873  0.80841999    -0.04400
C1190       C  0.18339604  0.93521176  0.81604800     0.07800
C1191       C  0.18414885  0.92611897  0.81924433     0.01600
H1192       H  0.19078486  0.94176292  0.80411445     0.09200
H1193       H  0.18052641  0.92302202  0.82510917     0.08300
N1194       N  0.21336332  0.91590558  0.78912690    -0.35500
N1195       N  0.21609167  0.90718266  0.79070344    -0.27700
C1196       C  0.22204413  0.90455875  0.78398433    -0.02900
C1197       C  0.22325707  0.91192036  0.77782248     0.05700
C1198       C  0.21766352  0.91904520  0.78131165     0.03800
H1199       H  0.22521713  0.89770280  0.78359829     0.08900
H1200       H  0.21663926  0.92591771  0.77828550     0.07700
N1201       N  0.20823085  0.82318713  0.88255521    -0.26700
N1202       N  0.20102704  0.82735073  0.88640198    -0.34500
C1203       C  0.19766053  0.83378748  0.88049470     0.01700
C1204       C  0.20296075  0.83373215  0.87244962     0.07700
C1205       C  0.20965660  0.82691820  0.87397781    -0.05400
H1206       H  0.19175483  0.83818922  0.88199306     0.08400
H1207       H  0.21511158  0.82481676  0.86923973     0.09600
Cu1208     Cu  0.19591088  0.82417165  0.89942985     0.44200
Cu1209     Cu  0.21520176  0.81255180  0.88959299     0.42000
Cu1210     Cu  0.20636232  0.80632123  0.91342527     0.43900
N1211       N  0.19139440  0.82085991  0.91265120    -0.34100
N1212       N  0.19517499  0.81435717  0.91800745    -0.28300
C1213       C  0.19090092  0.81444964  0.92640832    -0.04400
C1214       C  0.18415701  0.82138369  0.92626237     0.07800
C1215       C  0.18467586  0.82524921  0.91740191     0.01600
H1216       H  0.19276892  0.81002738  0.93227154     0.09200
H1217       H  0.18071218  0.83106205  0.91466131     0.08300
N1218       N  0.21723393  0.79957513  0.90652217    -0.35500
N1219       N  0.22023514  0.80178374  0.89802592    -0.27700
C1220       C  0.22687997  0.79570510  0.89551073    -0.02900
C1221       C  0.22820720  0.78938211  0.90272981     0.05700
C1222       C  0.22199824  0.79206385  0.90962455     0.03800
H1223       H  0.23038931  0.79580603  0.88881445     0.08900
H1224       H  0.22079671  0.78862513  0.91627227     0.07700
N1225       N  0.29156598  0.82381807  0.62197392    -0.26700
N1226       N  0.29818286  0.82896823  0.61826426    -0.34500
C1227       C  0.30100384  0.83536070  0.62452891     0.01700
C1228       C  0.29588517  0.83425830  0.63263171     0.07700
C1229       C  0.28991897  0.82686862  0.63077145    -0.05400
H1230       H  0.30627032  0.84056328  0.62318413     0.08400
H1231       H  0.28478810  0.82393582  0.63543500     0.09600
Cu1232     Cu  0.30265934  0.82734028  0.60468574     0.44200
Cu1233     Cu  0.28554399  0.81300379  0.61434402     0.42000
Cu1234     Cu  0.29208507  0.81042605  0.58910113     0.43900
N1235       N  0.30599389  0.82615582  0.59072926    -0.34100
N1236       N  0.30213855  0.82025699  0.58474721    -0.28300
C1237       C  0.30583649  0.82183506  0.57617358    -0.04400
C1238       C  0.31232182  0.82902116  0.57692300     0.07800
C1239       C  0.31218079  0.83152440  0.58625626     0.01600
H1240       H  0.30395219  0.81805518  0.56988481     0.09200
H1241       H  0.31617858  0.83699599  0.58958263     0.08300
N1242       N  0.28293031  0.80147638  0.59642413    -0.35500
N1243       N  0.28089260  0.80244901  0.60543717    -0.27700
C1244       C  0.27524099  0.79546955  0.60808243    -0.02900
C1245       C  0.27347889  0.78979086  0.60044156     0.05700
C1246       C  0.27845880  0.79382297  0.59313623     0.03800
H1247       H  0.27256678  0.79462708  0.61511514     0.08900
H1248       H  0.27892146  0.79129232  0.58600205     0.07700
N1249       N  0.28700289  0.88990243  0.69379202    -0.26700
N1250       N  0.29495647  0.89281421  0.69034242    -0.34500
C1251       C  0.29831664  0.88632686  0.68444405     0.01700
C1252       C  0.29216701  0.87891425  0.68408980     0.07700
C1253       C  0.28506308  0.88141451  0.69013787    -0.05400
H1254       H  0.30454344  0.88721282  0.68035464     0.08400
H1255       H  0.27878821  0.87753439  0.69149393     0.09600
Cu1256     Cu  0.30008563  0.90608837  0.69256192     0.44200
Cu1257     Cu  0.27917643  0.89829120  0.70272637     0.42000
Cu1258     Cu  0.28598447  0.92315778  0.70482306     0.43900
N1259       N  0.30280070  0.92025617  0.69258238    -0.34100
N1260       N  0.29763474  0.92665582  0.69676687    -0.28300
C1261       C  0.30099609  0.93519965  0.69456600    -0.04400
C1262       C  0.30858817  0.93405859  0.68869554     0.07800
C1263       C  0.30949815  0.92448038  0.68764090     0.01600
H1264       H  0.29798962  0.94175383  0.69685571     0.09200
H1265       H  0.31446953  0.92079675  0.68334281     0.08300
N1266       N  0.27523511  0.91689277  0.71248641    -0.35500
N1267       N  0.27299646  0.90792356  0.71175201    -0.27700
C1268       C  0.26635242  0.90593144  0.71802660    -0.02900
C1269       C  0.26420633  0.91399054  0.72297297     0.05700
C1270       C  0.26994280  0.92082830  0.71922823     0.03800
H1271       H  0.26340059  0.89903949  0.71899636     0.08900
H1272       H  0.27047748  0.92804630  0.72148127     0.07700
N1273       N  0.21442977  0.63013734  0.68768458    -0.26700
N1274       N  0.20889577  0.62599730  0.68162894    -0.34500
C1275       C  0.20757962  0.63162057  0.67422760     0.01700
C1276       C  0.21256674  0.63976391  0.67563343     0.07700
C1277       C  0.21681653  0.63861229  0.68428197    -0.05400
H1278       H  0.20343743  0.62977484  0.66819747     0.08400
H1279       H  0.22149515  0.64342965  0.68770319     0.09600
Cu1280     Cu  0.20398075  0.61263066  0.68341116     0.44200
Cu1281     Cu  0.21864654  0.62318347  0.69972068     0.42000
Cu1282     Cu  0.21162613  0.59796236  0.70239816     0.43900
N1283       N  0.19959062  0.59907772  0.68520860    -0.34100
N1284       N  0.20213048  0.59346253  0.69211324    -0.28300
C1285       C  0.19764421  0.58520577  0.69104813    -0.04400
C1286       C  0.19212130  0.58575828  0.68304991     0.07800
C1287       C  0.19359678  0.59465215  0.67959587     0.01600
H1288       H  0.19834931  0.57927068  0.69571119     0.09200
H1289       H  0.19044413  0.59778506  0.67347246     0.08300
N1290       N  0.22072175  0.60529021  0.71135436    -0.35500
N1291       N  0.22278518  0.61429990  0.71046747    -0.27700
C1292       C  0.22853374  0.61683259  0.71740959    -0.02900
C1293       C  0.23033835  0.60910099  0.72293743     0.05700
C1294       C  0.22530314  0.60187931  0.71887907     0.03800
H1295       H  0.23141056  0.62378268  0.71819066     0.08900
H1296       H  0.22496297  0.59468650  0.72124699     0.07700
N1297       N  0.21466770  0.70068018  0.61856585    -0.26700
N1298       N  0.20731403  0.69646533  0.61510178    -0.34500
C1299       C  0.20522487  0.68901001  0.62037520     0.01700
C1300       C  0.21153521  0.68843980  0.62759999     0.07700
C1301       C  0.21742859  0.69600876  0.62631480    -0.05400
H1302       H  0.19975141  0.68410577  0.61877727     0.08400
H1303       H  0.22355417  0.69764442  0.63033793     0.09600
Cu1304     Cu  0.20134533  0.69988817  0.60252990     0.44200
Cu1305     Cu  0.22075066  0.71174929  0.61134159     0.42000
Cu1306     Cu  0.21242534  0.71552704  0.58662061     0.43900
N1307       N  0.19744850  0.70109698  0.58876713    -0.34100
N1308       N  0.20154514  0.70657412  0.58257198    -0.28300
C1309       C  0.19768154  0.70494958  0.57408404    -0.04400
C1310       C  0.19088715  0.69809909  0.57510813     0.07800
C1311       C  0.19098232  0.69589346  0.58452078     0.01600
H1312       H  0.19976109  0.70836152  0.56765152     0.09200
H1313       H  0.18682193  0.69067450  0.58804044     0.08300
N1314       N  0.22261205  0.72356962  0.59351042    -0.35500
N1315       N  0.22533358  0.72224318  0.60229405    -0.27700
C1316       C  0.23156738  0.72884455  0.60457967    -0.02900
C1317       C  0.23294488  0.73463113  0.59692431     0.05700
C1318       C  0.22717927  0.73104807  0.59001514     0.03800
H1319       H  0.23486148  0.72936615  0.61136689     0.08900
H1320       H  0.22622657  0.73379962  0.58301333     0.07700
C1321       C  0.99792022  0.94470726  0.06668008     0.80800
N1322       N  0.99140005  0.95152481  0.06571000    -0.77500
C1323       C  0.99207144  0.95802832  0.05872501     0.83300
N1324       N  0.99928824  0.95755099  0.05259234    -0.77400
C1325       C  0.00580706  0.95070378  0.05346273     0.83400
N1326       N  0.00509845  0.94439995  0.06055987    -0.79100
N1327       N  0.98098408  0.85488650  0.13894579    -0.26700
N1328       N  0.97638719  0.86247795  0.13644452    -0.34500
C1329       C  0.96758576  0.86162561  0.13951707     0.01700
C1330       C  0.96673837  0.85307651  0.14415802     0.07700
C1331       C  0.97539437  0.84905796  0.14360384    -0.05400
H1332       H  0.96228268  0.86690106  0.13864827     0.08400
H1333       H  0.97765312  0.84252495  0.14668393     0.09600
Cu1334     Cu  0.98313740  0.87342057  0.12938313     0.44200
Cu1335     Cu  0.99492447  0.85304235  0.13737480     0.42000
Cu1336     Cu  0.00915236  0.87112269  0.12926799     0.43900
N1337       N  0.99231706  0.88226530  0.12215736    -0.34100
N1338       N  0.00144131  0.88133394  0.12199890    -0.28300
C1339       C  0.00498609  0.88788508  0.11621822    -0.04400
C1340       C  0.99784135  0.89325605  0.11259716     0.07800
C1341       C  0.98991509  0.88949108  0.11654934     0.01600
H1342       H  0.01226984  0.88863456  0.11469966     0.09200
H1343       H  0.98287248  0.89166848  0.11523886     0.08300
N1344       N  0.01452068  0.85952549  0.13658136    -0.35500
N1345       N  0.00894779  0.85272196  0.13925169    -0.27700
C1346       C  0.01368363  0.84633045  0.14418387    -0.02900
C1347       C  0.02278902  0.84913993  0.14472750     0.05700
C1348       C  0.02311225  0.85756407  0.13977614     0.03800
H1349       H  0.01060383  0.84024255  0.14744243     0.08900
H1350       H  0.02905148  0.86206192  0.13884613     0.07700
C1351       C  0.06666581  0.93956614  0.99835351     0.80800
N1352       N  0.06673692  0.94577826  0.99110930    -0.77500
C1353       C  0.06051427  0.95289473  0.99074811     0.83300
N1354       N  0.05404287  0.95363093  0.99758297    -0.77400
C1355       C  0.05374584  0.94743059  0.00479736     0.83400
N1356       N  0.06016624  0.94043613  0.00524273    -0.79100
N1357       N  0.14351607  0.85343996  0.99040755    -0.26700
N1358       N  0.13935476  0.85984293  0.98524242    -0.34500
C1359       C  0.14157320  0.85833126  0.97617104     0.01700
C1360       C  0.14741824  0.85059888  0.97573369     0.07700
C1361       C  0.14844693  0.84771355  0.98491236    -0.05400
H1362       H  0.13928059  0.86263848  0.97037702     0.08400
H1363       H  0.15272441  0.84207116  0.98751926     0.09600
Cu1364     Cu  0.13132970  0.87025256  0.99155718     0.44200
Cu1365     Cu  0.14335452  0.85334662  0.00473237     0.42000
Cu1366     Cu  0.13160717  0.87053818  0.01804979     0.43900
N1367       N  0.12348153  0.87912713  0.00010489    -0.34100
N1368       N  0.12337298  0.87909672  0.00940851    -0.28300
C1369       C  0.11725133  0.88558223  0.01237130    -0.04400
C1370       C  0.11337378  0.88995294  0.00462563     0.07800
C1371       C  0.11750811  0.88566623  0.99698648     0.01600
H1372       H  0.11577041  0.88704609  0.01966087     0.09200
H1373       H  0.11620365  0.88709853  0.98965780     0.08300
N1374       N  0.14111794  0.86119154  0.02409677    -0.35500
N1375       N  0.14527263  0.85484712  0.01884952    -0.27700
C1376       C  0.15131863  0.84998881  0.02401788    -0.02900
C1377       C  0.15105008  0.85333266  0.03309523     0.05700
C1378       C  0.14446125  0.86046065  0.03292928     0.03800
H1379       H  0.15568665  0.84450521  0.02124007     0.08900
H1380       H  0.14238396  0.86486415  0.03873296     0.07700
C1381       C  0.92945139  0.01244973  0.06597060     0.80800
N1382       N  0.93011252  0.01979768  0.05994932    -0.77500
C1383       C  0.93699280  0.02019243  0.05344769     0.83300
N1384       N  0.94341237  0.01317373  0.05311410    -0.77400
C1385       C  0.94290560  0.00582560  0.05922708     0.83400
N1386       N  0.93586278  0.00550786  0.06554814    -0.79100
N1387       N  0.83970452  0.99939784  0.13846305    -0.26700
N1388       N  0.84702192  0.99449965  0.13590464    -0.34500
C1389       C  0.84634658  0.98585628  0.13969404     0.01700
C1390       C  0.83824201  0.98541438  0.14492932     0.07700
C1391       C  0.83423888  0.99414353  0.14393160    -0.05400
H1392       H  0.85153839  0.98044187  0.13902031     0.08400
H1393       H  0.82802904  0.99669890  0.14729004     0.09600
Cu1394     Cu  0.85768619  0.00066999  0.12809177     0.44200
Cu1395     Cu  0.83825019  0.01347522  0.13607785     0.42000
Cu1396     Cu  0.85721188  0.02691027  0.12805862     0.43900
N1397       N  0.86659956  0.00926185  0.12027568    -0.34100
N1398       N  0.86629827  0.01855177  0.12016652    -0.28300
C1399       C  0.87267412  0.02172596  0.11406232    -0.04400
C1400       C  0.87728786  0.01414928  0.11017422     0.07800
C1401       C  0.87325347  0.00635981  0.11430699     0.01600
H1402       H  0.87386925  0.02905685  0.11256647     0.09200
H1403       H  0.87490529  0.99909232  0.11294689     0.08300
N1404       N  0.84638626  0.03279427  0.13588470    -0.35500
N1405       N  0.83922872  0.02761188  0.13830913    -0.27700
C1406       C  0.83348223  0.03261771  0.14368572    -0.02900
C1407       C  0.83711022  0.04148686  0.14482646     0.05700
C1408       C  0.84531839  0.04139989  0.13972033     0.03800
H1409       H  0.82731822  0.02977996  0.14688296     0.08900
H1410       H  0.85028630  0.04702860  0.13914599     0.07700
C1411       C  0.93160073  0.08242998  0.99852860     0.80800
N1412       N  0.93797423  0.08270984  0.99151152    -0.77500
C1413       C  0.94499267  0.07636192  0.99119996     0.83300
N1414       N  0.94556303  0.06964769  0.99795214    -0.77400
C1415       C  0.93922757  0.06922982  0.00498127     0.83400
N1416       N  0.93227975  0.07567225  0.00524616    -0.79100
N1417       N  0.85247687  0.16749236  0.98438446    -0.26700
N1418       N  0.85654033  0.16152601  0.97865243    -0.34500
C1419       C  0.85372747  0.16342137  0.96981244     0.01700
C1420       C  0.84757856  0.17093100  0.97014786     0.07700
C1421       C  0.84702899  0.17329899  0.97950681    -0.05400
H1422       H  0.85572844  0.15943875  0.96368794     0.08400
H1423       H  0.84262286  0.17855908  0.98264903     0.09600
Cu1424     Cu  0.86494014  0.15089109  0.98413324     0.44200
Cu1425     Cu  0.85302102  0.16643331  0.99865826     0.42000
Cu1426     Cu  0.86175382  0.14634220  0.01014351     0.43900
N1427       N  0.87252748  0.14130230  0.99222706    -0.34100
N1428       N  0.87124303  0.13948500  0.00126396    -0.28300
C1429       C  0.87737085  0.13287452  0.00394279    -0.04400
C1430       C  0.88283047  0.13046663  0.99631640     0.07800
C1431       C  0.87955734  0.13597875  0.98904105     0.01600
H1432       H  0.87793415  0.13016575  0.01100324     0.09200
H1433       H  0.88208522  0.13609747  0.98190325     0.08300
N1434       N  0.85292296  0.15592934  0.01689865    -0.35500
N1435       N  0.85015113  0.16348711  0.01237143    -0.27700
C1436       C  0.84462327  0.16860534  0.01785594    -0.02900
C1437       C  0.84376726  0.16418094  0.02641510     0.05700
C1438       C  0.84914250  0.15609710  0.02559107     0.03800
H1439       H  0.84134399  0.17502972  0.01560755     0.08900
H1440       H  0.85019168  0.15076574  0.03087732     0.07700
C1441       C  0.99995962  0.08171597  0.92989914     0.80800
N1442       N  0.00682363  0.07518755  0.92968100    -0.77500
C1443       C  0.00707192  0.06815980  0.93613708     0.83300
N1444       N  0.00047904  0.06780543  0.94292800    -0.77400
C1445       C  0.99360546  0.07429568  0.94323777     0.83400
N1446       N  0.99335367  0.08118490  0.93666022    -0.79100
N1447       N  0.01716185  0.17131992  0.85626939    -0.26700
N1448       N  0.02158957  0.16336734  0.85773523    -0.34500
C1449       C  0.02965678  0.16362680  0.85297561     0.01700
C1450       C  0.03017966  0.17215054  0.84825855     0.07700
C1451       C  0.02212948  0.17679553  0.85055313    -0.05400
H1452       H  0.03458026  0.15792816  0.85268859     0.08400
H1453       H  0.01983167  0.18352823  0.84795511     0.09600
Cu1454     Cu  0.01546088  0.15267158  0.86561951     0.44200
Cu1455     Cu  0.00386179  0.17377580  0.86048726     0.42000
Cu1456     Cu  0.98995360  0.15522127  0.86911372     0.43900
N1457       N  0.00723682  0.14392445  0.87396502    -0.34100
N1458       N  0.99823155  0.14492716  0.87535135    -0.28300
C1459       C  0.99535110  0.13824209  0.88135094    -0.04400
C1460       C  0.00284643  0.13271431  0.88381813     0.07800
C1461       C  0.01024312  0.13653201  0.87898885     0.01600
H1462       H  0.98828618  0.13743949  0.88368405     0.09200
H1463       H  0.01734497  0.13417345  0.87918835     0.08300
N1464       N  0.98439014  0.16680714  0.86214131    -0.35500
N1465       N  0.98976339  0.17377301  0.85945142    -0.27700
C1466       C  0.98484521  0.17994469  0.85445836    -0.02900
C1467       C  0.97585980  0.17680169  0.85389120     0.05700
C1468       C  0.97576080  0.16843545  0.85890139     0.03800
H1469       H  0.98777349  0.18601335  0.85102473     0.08900
H1470       H  0.97000145  0.16368229  0.85972216     0.07700
C1471       C  0.06693347  0.01146671  0.93197718     0.80800
N1472       N  0.06662132  0.00442649  0.93843360    -0.77500
C1473       C  0.06005475  0.00442605  0.94526996     0.83300
N1474       N  0.05372518  0.01144717  0.94552079    -0.77400
C1475       C  0.05384526  0.01842898  0.93905964     0.83400
N1476       N  0.06052430  0.01845891  0.93234035    -0.79100
N1477       N  0.13676956  0.99929808  0.84174039    -0.26700
N1478       N  0.13608692  0.99483825  0.84981470    -0.34500
C1479       C  0.14003708  0.98629633  0.84883836     0.01700
C1480       C  0.14336351  0.98548610  0.83969238     0.07700
C1481       C  0.14110201  0.99387247  0.83546340    -0.05400
H1482       H  0.14077199  0.98123940  0.85443830     0.08400
H1483       H  0.14298817  0.99614454  0.82848533     0.09600
Cu1484     Cu  0.13020666  0.00163170  0.86145842     0.44200
Cu1485     Cu  0.13403449  0.01327325  0.84010421     0.42000
Cu1486     Cu  0.12919392  0.02785655  0.85945030     0.43900
N1487       N  0.12271722  0.01058842  0.87039455    -0.34100
N1488       N  0.12213265  0.01982875  0.86953432    -0.28300
C1489       C  0.11605842  0.02309004  0.87593386    -0.04400
C1490       C  0.11268870  0.01561531  0.88112546     0.07800
C1491       C  0.11710596  0.00782178  0.87741568     0.01600
H1492       H  0.11413968  0.03038176  0.87666872     0.09200
H1493       H  0.11608078  0.00059592  0.87944747     0.08300
N1494       N  0.13625930  0.03277152  0.84756610    -0.35500
N1495       N  0.13755438  0.02715691  0.84033030    -0.27700
C1496       C  0.14285964  0.03140527  0.83393193    -0.02900
C1497       C  0.14507733  0.04022304  0.83716282     0.05700
C1498       C  0.14072181  0.04092469  0.84585428     0.03800
H1499       H  0.14529141  0.02809138  0.82757018     0.08900
H1500       H  0.14112874  0.04672070  0.85072455     0.07700
N1501       N  0.71163797  0.19925363  0.38257133    -0.26700
N1502       N  0.70359129  0.19641207  0.38581449    -0.34500
C1503       C  0.69972693  0.19050773  0.37965254     0.01700
C1504       C  0.70563621  0.18955105  0.37210155     0.07700
C1505       C  0.71313427  0.19525216  0.37415444    -0.05400
H1506       H  0.69338013  0.18671140  0.38089656     0.08400
H1507       H  0.71942085  0.19600976  0.37012890     0.09600
Cu1508     Cu  0.69933337  0.19913157  0.39925995     0.44200
Cu1509     Cu  0.72002955  0.20775770  0.39065358     0.42000
Cu1510     Cu  0.71428471  0.21039482  0.41605013     0.43900
N1511       N  0.69762145  0.19815223  0.41350193    -0.34100
N1512       N  0.70320437  0.20172220  0.41990186    -0.28300
C1513       C  0.70047232  0.19858542  0.42841471    -0.04400
C1514       C  0.69282358  0.19279792  0.42717182     0.07800
C1515       C  0.69127032  0.19275594  0.41764193     0.01600
H1516       H  0.70389047  0.20023070  0.43495500     0.09200
H1517       H  0.68611846  0.18875871  0.41387875     0.08300
N1518       N  0.72349201  0.21897086  0.40856083    -0.35500
N1519       N  0.72539909  0.21785607  0.39953983    -0.27700
C1520       C  0.73064583  0.22501341  0.39659601    -0.02900
C1521       C  0.73220326  0.23097878  0.40403789     0.05700
C1522       C  0.72762301  0.22691281  0.41156184     0.03800
H1523       H  0.73286536  0.22597428  0.38941677     0.08900
H1524       H  0.72691821  0.22977379  0.41854952     0.07700
N1525       N  0.71329907  0.12797825  0.31640849    -0.26700
N1526       N  0.70715888  0.12426607  0.32214459    -0.34500
C1527       C  0.70451380  0.13070145  0.32844817     0.01700
C1528       C  0.70925677  0.13891281  0.32665873     0.07700
C1529       C  0.71480559  0.13693755  0.31897732    -0.05400
H1530       H  0.69962023  0.12939537  0.33402349     0.08400
H1531       H  0.71957600  0.14163807  0.31552686     0.09600
Cu1532     Cu  0.70279751  0.11058042  0.32130534     0.44200
Cu1533     Cu  0.71899804  0.12029778  0.30546310     0.42000
Cu1534     Cu  0.71052882  0.09591692  0.30226986     0.43900
N1535       N  0.69848385  0.09696567  0.31953547    -0.34100
N1536       N  0.70096249  0.09151812  0.31247216    -0.28300
C1537       C  0.69646441  0.08327029  0.31331831    -0.04400
C1538       C  0.69099320  0.08359961  0.32134249     0.07800
C1539       C  0.69250436  0.09238530  0.32507186     0.01600
H1540       H  0.69714092  0.07747558  0.30847764     0.09200
H1541       H  0.68934333  0.09534484  0.33127665     0.08300
N1542       N  0.72045805  0.10249433  0.29372308    -0.35500
N1543       N  0.72334232  0.11122100  0.29493644    -0.27700
C1544       C  0.72944644  0.11337713  0.28817037    -0.02900
C1545       C  0.73055574  0.10568048  0.28238144     0.05700
C1546       C  0.72477513  0.09888658  0.28613942     0.03800
H1547       H  0.73278567  0.12012111  0.28750306     0.08900
H1548       H  0.72362214  0.09190571  0.28342669     0.07700
N1549       N  0.78322352  0.19899182  0.11886449    -0.26700
N1550       N  0.78929592  0.19326782  0.11501351    -0.34500
C1551       C  0.79137540  0.18640440  0.12107244     0.01700
C1552       C  0.78635955  0.18781148  0.12920853     0.07700
C1553       C  0.78122419  0.19586958  0.12756087    -0.05400
H1554       H  0.79612735  0.18075361  0.11956399     0.08400
H1555       H  0.77642032  0.19921224  0.13231339     0.09600
Cu1556     Cu  0.79428592  0.19481604  0.10159786     0.44200
Cu1557     Cu  0.77836135  0.21066417  0.11164765     0.42000
Cu1558     Cu  0.78650776  0.21387435  0.08705463     0.43900
N1559       N  0.79827946  0.19643353  0.08785242    -0.34100
N1560       N  0.79553592  0.20335234  0.08235590    -0.28300
C1561       C  0.79944140  0.20216946  0.07384381    -0.04400
C1562       C  0.80483509  0.19409673  0.07405374     0.07800
C1563       C  0.80390494  0.19068397  0.08306222     0.01600
H1564       H  0.79840446  0.20680878  0.06793729     0.09200
H1565       H  0.80709397  0.18448289  0.08598612     0.08300
N1566       N  0.77769662  0.22311916  0.09422928    -0.35500
N1567       N  0.77495618  0.22191069  0.10301256    -0.27700
C1568       C  0.76962841  0.22918870  0.10556808    -0.02900
C1569       C  0.76888064  0.23530164  0.09808761     0.05700
C1570       C  0.77407583  0.23122261  0.09099203     0.03800
H1571       H  0.76652424  0.22996056  0.11242468     0.08900
H1572       H  0.77525419  0.23399381  0.08403572     0.07700
N1573       N  0.78430447  0.13064563  0.18968825    -0.26700
N1574       N  0.79195559  0.12720966  0.18601397    -0.34500
C1575       C  0.79507556  0.13302219  0.17935828     0.01700
C1576       C  0.78913616  0.14057744  0.17873199     0.07700
C1577       C  0.78235505  0.13887235  0.18542845    -0.05400
H1578       H  0.80104971  0.13162107  0.17502230     0.08400
H1579       H  0.77630169  0.14308870  0.18684628     0.09600
Cu1580     Cu  0.79715878  0.11417417  0.18913737     0.44200
Cu1581     Cu  0.77711042  0.12313579  0.19991101     0.42000
Cu1582     Cu  0.78412153  0.09812488  0.20315996     0.43900
N1583       N  0.79998839  0.10007527  0.18970580    -0.34100
N1584       N  0.79498753  0.09391618  0.19439558    -0.28300
C1585       C  0.79794001  0.08523411  0.19210990    -0.04400
C1586       C  0.80515027  0.08606258  0.18571480     0.07800
C1587       C  0.80623834  0.09558104  0.18441580     0.01600
H1588       H  0.79488790  0.07880998  0.19467476     0.09200
H1589       H  0.81084096  0.09901955  0.17953383     0.08300
N1590       N  0.77459446  0.10531413  0.21160553    -0.35500
N1591       N  0.77226819  0.11422997  0.21046013    -0.27700
C1592       C  0.76672050  0.11684297  0.21756138    -0.02900
C1593       C  0.76541282  0.10926946  0.22347205     0.05700
C1594       C  0.77047223  0.10205545  0.21944572     0.03800
H1595       H  0.76402732  0.12385714  0.21848067     0.08900
H1596       H  0.77144069  0.09507509  0.22223728     0.07700
N1597       N  0.71670151  0.39644864  0.18510878    -0.26700
N1598       N  0.71123028  0.40039560  0.17884749    -0.34500
C1599       C  0.70881388  0.39401981  0.17240391     0.01700
C1600       C  0.71301628  0.38560447  0.17463927     0.07700
C1601       C  0.71801847  0.38739425  0.18273855    -0.05400
H1602       H  0.70455375  0.39552470  0.16635682     0.08400
H1603       H  0.72233406  0.38252559  0.18656749     0.09600
Cu1604     Cu  0.70777530  0.41440324  0.17894988     0.44200
Cu1605     Cu  0.72195163  0.40409640  0.19626624     0.42000
Cu1606     Cu  0.71672300  0.42968290  0.19681419     0.43900
N1607       N  0.70491778  0.42853806  0.17951298    -0.34100
N1608       N  0.70807212  0.43428845  0.18602652    -0.28300
C1609       C  0.70449093  0.44288516  0.18449225    -0.04400
C1610       C  0.69884117  0.44245978  0.17662421     0.07800
C1611       C  0.69932726  0.43324901  0.17367488     0.01600
H1612       H  0.70573827  0.44892871  0.18889177     0.09200
H1613       H  0.69568851  0.43007934  0.16786451     0.08300
N1614       N  0.72466806  0.42252365  0.20674316    -0.35500
N1615       N  0.72632161  0.41339438  0.20654198    -0.27700
C1616       C  0.73141301  0.41103926  0.21405077    -0.02900
C1617       C  0.73312378  0.41902868  0.21925032     0.05700
C1618       C  0.72876028  0.42619031  0.21440161     0.03800
H1619       H  0.73373772  0.40399249  0.21554473     0.08900
H1620       H  0.72849664  0.43351529  0.21633661     0.07700
N1621       N  0.71556726  0.32744447  0.11570843    -0.26700
N1622       N  0.70795695  0.33129618  0.11237497    -0.34500
C1623       C  0.70470110  0.33754623  0.11855091     0.01700
C1624       C  0.71054637  0.33774149  0.12620455     0.07700
C1625       C  0.71739726  0.33121676  0.12418894    -0.05400
H1626       H  0.69868500  0.34188755  0.11736009     0.08400
H1627       H  0.72335903  0.32950802  0.12843133     0.09600
Cu1628     Cu  0.70289478  0.32885045  0.09913889     0.44200
Cu1629     Cu  0.72275483  0.31748166  0.10793300     0.42000
Cu1630     Cu  0.71478775  0.31385574  0.08317001     0.43900
N1631       N  0.69946334  0.32785888  0.08518890    -0.34100
N1632       N  0.70369355  0.32235185  0.07910473    -0.28300
C1633       C  0.69980423  0.32363927  0.07058909    -0.04400
C1634       C  0.69291946  0.33038860  0.07143865     0.07800
C1635       C  0.69294206  0.33287385  0.08078254     0.01600
H1636       H  0.70197517  0.32012584  0.06423817     0.09200
H1637       H  0.68856023  0.33800609  0.08416405     0.08300
N1638       N  0.72491669  0.30590744  0.09002055    -0.35500
N1639       N  0.72752383  0.30710958  0.09885235    -0.27700
C1640       C  0.73339645  0.30020388  0.10123812    -0.02900
C1641       C  0.73463773  0.29440283  0.09357350     0.05700
C1642       C  0.72921704  0.29826612  0.08656465     0.03800
H1643       H  0.73640047  0.29937712  0.10813497     0.08900
H1644       H  0.72812364  0.29547166  0.07960111     0.07700
N1645       N  0.78297927  0.39532438  0.31380967    -0.26700
N1646       N  0.78902057  0.39928048  0.31948776    -0.34500
C1647       C  0.79183077  0.39301130  0.32587158     0.01700
C1648       C  0.78725900  0.38468879  0.32423036     0.07700
C1649       C  0.78164317  0.38638126  0.31653752    -0.05400
H1650       H  0.79675342  0.39446862  0.33138949     0.08400
H1651       H  0.77708430  0.38146440  0.31309071     0.09600
Cu1652     Cu  0.79300242  0.41305606  0.31844614     0.44200
Cu1653     Cu  0.77755190  0.40265176  0.30254660     0.42000
Cu1654     Cu  0.78473492  0.42764174  0.29967018     0.43900
N1655       N  0.79671658  0.42686234  0.31690429    -0.34100
N1656       N  0.79389404  0.43236429  0.31002416    -0.28300
C1657       C  0.79801589  0.44078882  0.31101247    -0.04400
C1658       C  0.80364046  0.44050044  0.31891676     0.07800
C1659       C  0.80259359  0.43155728  0.32244495     0.01600
H1660       H  0.79705401  0.44664782  0.30629869     0.09200
H1661       H  0.80598224  0.42855935  0.32850162     0.08300
N1662       N  0.77615120  0.42023698  0.29043471    -0.35500
N1663       N  0.77382967  0.41132079  0.29150705    -0.27700
C1664       C  0.76871774  0.40858868  0.28415222    -0.02900
C1665       C  0.76765697  0.41609407  0.27814389     0.05700
C1666       C  0.77243138  0.42339621  0.28235012     0.03800
H1667       H  0.76599944  0.40158760  0.28324796     0.08900
H1668       H  0.77332862  0.43041514  0.27963839     0.07700
N1669       N  0.78392035  0.32244445  0.37923223    -0.26700
N1670       N  0.79155712  0.32679290  0.38179154    -0.34500
C1671       C  0.79392393  0.33302883  0.37520458     0.01700
C1672       C  0.78742329  0.33270766  0.36811392     0.07700
C1673       C  0.78114644  0.32590495  0.37089044    -0.05400
H1674       H  0.79968520  0.33780370  0.37583901     0.08400
H1675       H  0.77492209  0.32380804  0.36725794     0.09600
Cu1676     Cu  0.79766244  0.32530364  0.39470896     0.44200
Cu1677     Cu  0.77787586  0.31233242  0.38774084     0.42000
Cu1678     Cu  0.78814164  0.30931515  0.41143584     0.43900
N1679       N  0.80158912  0.32510769  0.40855659    -0.34100
N1680       N  0.79825279  0.31921212  0.41483964    -0.28300
C1681       C  0.80207379  0.32120612  0.42323206    -0.04400
C1682       C  0.80797927  0.32879906  0.42211999     0.07800
C1683       C  0.80746588  0.33106292  0.41272816     0.01600
H1684       H  0.80049398  0.31756190  0.42968454     0.09200
H1685       H  0.81105682  0.33667191  0.40916203     0.08300
N1686       N  0.77777315  0.30082262  0.40574980    -0.35500
N1687       N  0.77417914  0.30195534  0.39728055    -0.27700
C1688       C  0.76799138  0.29511760  0.39569559    -0.02900
C1689       C  0.76759639  0.28939755  0.40351949     0.05700
C1690       C  0.77386435  0.29324864  0.40977235     0.03800
H1691       H  0.76412750  0.29434328  0.38925121     0.08900
H1692       H  0.77562747  0.29060994  0.41665541     0.07700
N1693       N  0.01737649  0.65261186  0.34428867    -0.26700
N1694       N  0.02210729  0.65059036  0.35194198    -0.34500
C1695       C  0.03081466  0.65385038  0.35085476     0.01700
C1696       C  0.03146321  0.65817532  0.34211724     0.07700
C1697       C  0.02279826  0.65715615  0.33819383    -0.05400
H1698       H  0.03611644  0.65353994  0.35619271     0.08400
H1699       H  0.02036101  0.66003733  0.33163398     0.09600
Cu1700     Cu  0.01555738  0.64436441  0.36352434     0.44200
Cu1701     Cu  0.00330801  0.65142138  0.34310142     0.42000
Cu1702     Cu  0.98965373  0.64601383  0.36273915     0.43900
N1703       N  0.00648533  0.63787151  0.37304366    -0.34100
N1704       N  0.99733882  0.63831321  0.37259450    -0.28300
C1705       C  0.99376011  0.63278696  0.37933530    -0.04400
C1706       C  0.00091265  0.62870393  0.38434370     0.07800
C1707       C  0.00888368  0.63212539  0.38016740     0.01600
H1708       H  0.98644100  0.63172591  0.38043440     0.09200
H1709       H  0.01592443  0.63031464  0.38195821     0.08300
N1710       N  0.98440472  0.65363136  0.35132952    -0.35500
N1711       N  0.98966739  0.65523346  0.34394862    -0.27700
C1712       C  0.98520515  0.66082727  0.33791168    -0.02900
C1713       C  0.97662138  0.66291949  0.34156446     0.05700
C1714       C  0.97628943  0.65817966  0.35010234     0.03800
H1715       H  0.98820118  0.66352242  0.33150869     0.08900
H1716       H  0.97076242  0.65837361  0.35520235     0.07700
C1717       C  0.99983970  0.58246637  0.43548407     0.80800
N1718       N  0.00606808  0.58199584  0.44260362    -0.77500
C1719       C  0.00528737  0.57537115  0.44942892     0.83300
N1720       N  0.99824318  0.56905556  0.44899771    -0.77400
C1721       C  0.99198552  0.56939928  0.44185943     0.83400
N1722       N  0.99280405  0.57616103  0.43517490    -0.79100
N1723       N  0.84978921  0.50095352  0.35055594    -0.26700
N1724       N  0.85320158  0.49575416  0.35736674    -0.34500
C1725       C  0.84975530  0.48699303  0.35650426     0.01700
C1726       C  0.84393968  0.48680264  0.34872251     0.07700
C1727       C  0.84416316  0.49580576  0.34519174    -0.05400
H1728       H  0.85135039  0.48122621  0.36115512     0.08400
H1729       H  0.84038287  0.49854074  0.33925121     0.09600
Cu1730     Cu  0.86234904  0.50175995  0.36699519     0.44200
Cu1731     Cu  0.85233948  0.51495838  0.34914369     0.42000
Cu1732     Cu  0.86607041  0.52813675  0.36470271     0.43900
N1733       N  0.87175784  0.50989692  0.37462507    -0.34100
N1734       N  0.87321484  0.51903846  0.37373403    -0.28300
C1735       C  0.88002228  0.52157413  0.37966764    -0.04400
C1736       C  0.88295859  0.51372045  0.38454965     0.07800
C1737       C  0.87755338  0.50648041  0.38116731     0.01600
H1738       H  0.88259327  0.52864999  0.38040081     0.09200
H1739       H  0.87785328  0.49919651  0.38324863     0.08300
N1740       N  0.85753642  0.53452777  0.35468540    -0.35500
N1741       N  0.85268763  0.52926157  0.34889840    -0.27700
C1742       C  0.84742517  0.53465953  0.34341425    -0.02900
C1743       C  0.84892046  0.54391350  0.34576204     0.05700
C1744       C  0.85543522  0.54361102  0.35295953     0.03800
H1745       H  0.84265117  0.53192302  0.33827179     0.08900
H1746       H  0.85824015  0.54950575  0.35678315     0.07700
C1747       C  0.93196336  0.51394691  0.43195987     0.80800
N1748       N  0.93164505  0.50656947  0.43795669    -0.77500
C1749       C  0.93776502  0.50582423  0.44512290     0.83300
N1750       N  0.94434141  0.51254988  0.44625608    -0.77400
C1751       C  0.94479016  0.51996494  0.44025625     0.83400
N1752       N  0.93854871  0.52063499  0.43313731    -0.79100
C1753       C  0.92859581  0.44307416  0.49887372     0.80800
N1754       N  0.92925700  0.44996211  0.49229884    -0.77500
C1755       C  0.93640432  0.45613863  0.49252092     0.83300
N1756       N  0.94291562  0.45534024  0.49932782    -0.77400
C1757       C  0.94240284  0.44846548  0.50588590     0.83400
N1758       N  0.93519623  0.44236047  0.50565440    -0.79100
N1759       N  0.85640832  0.35519744  0.48418456    -0.26700
N1760       N  0.85684992  0.36338896  0.47990315    -0.34500
C1761       C  0.85204592  0.36278347  0.47178565     0.01700
C1762       C  0.84839049  0.35378122  0.47109648     0.07700
C1763       C  0.85136674  0.34923259  0.47907253    -0.05400
H1764       H  0.85093660  0.36855293  0.46699693     0.08400
H1765       H  0.84956185  0.34222837  0.48131643     0.09600
Cu1766     Cu  0.86342038  0.37480208  0.48635972     0.44200
Cu1767     Cu  0.86053268  0.35276537  0.49770584     0.42000
Cu1768     Cu  0.86624246  0.37150106  0.51230394     0.43900
N1769       N  0.87107359  0.38359297  0.49527324    -0.34100
N1770       N  0.87212941  0.38223191  0.50441016    -0.28300
C1771       C  0.87809550  0.38860447  0.50778720    -0.04400
C1772       C  0.88095101  0.39431439  0.50051891     0.07800
C1773       C  0.87632400  0.39096532  0.49268297     0.01600
H1774       H  0.88037462  0.38888819  0.51500675     0.09200
H1775       H  0.87703441  0.39342864  0.48554649     0.08300
N1776       N  0.86047585  0.35924947  0.51760342    -0.35500
N1777       N  0.85877957  0.35214968  0.51194401    -0.27700
C1778       C  0.85419017  0.34547766  0.51660740    -0.02900
C1779       C  0.85289420  0.34844484  0.52572286     0.05700
C1780       C  0.85703592  0.35722253  0.52616466     0.03800
H1781       H  0.85146701  0.33919175  0.51339525     0.08900
H1782       H  0.85704223  0.36199343  0.53205917     0.07700
N1783       N  0.01392769  0.36715134  0.65540249    -0.26700
N1784       N  0.01970960  0.37106576  0.64941988    -0.34500
C1785       C  0.02833453  0.36796711  0.65143305     0.01700
C1786       C  0.02776433  0.36178674  0.65899635     0.07700
C1787       C  0.01852328  0.36149979  0.66124795    -0.05400
H1788       H  0.03449642  0.36993833  0.64762699     0.08400
H1789       H  0.01529757  0.35744869  0.66675754     0.09600
Cu1790     Cu  0.01460596  0.38011009  0.63894055     0.44200
Cu1791     Cu  0.99997474  0.36919136  0.65554632     0.42000
Cu1792     Cu  0.98830920  0.38188872  0.63840591     0.43900
N1793       N  0.00669141  0.38827493  0.62955139    -0.34100
N1794       N  0.99752744  0.38870608  0.62931124    -0.28300
C1795       C  0.99494388  0.39444220  0.62227759    -0.04400
C1796       C  0.00276567  0.39787139  0.61787472     0.07800
C1797       C  0.01007995  0.39383412  0.62270454     0.01600
H1798       H  0.98784336  0.39609694  0.62058528     0.09200
H1799       H  0.01735916  0.39480672  0.62129294     0.08300
N1800       N  0.98117527  0.37442329  0.64879389    -0.35500
N1801       N  0.98589382  0.36993517  0.65530213    -0.27700
C1802       C  0.98010457  0.36550365  0.66111023    -0.02900
C1803       C  0.97116517  0.36718163  0.65818077     0.05700
C1804       C  0.97207422  0.37287711  0.65029363     0.03800
H1805       H  0.98232565  0.36106876  0.66683225     0.08900
H1806       H  0.96656596  0.37554806  0.64591513     0.07700
C1807       C  0.99905343  0.44305743  0.56595820     0.80800
N1808       N  0.99231506  0.44321638  0.55928256    -0.77500
C1809       C  0.99214123  0.45009860  0.55267496     0.83300
N1810       N  0.99863218  0.45697367  0.55294654    -0.77400
C1811       C  0.00539482  0.45694819  0.55956243     0.83400
N1812       N  0.00563692  0.44989508  0.56599883    -0.79100
N1813       N  0.14505559  0.67089439  0.51106493    -0.26700
N1814       N  0.14254770  0.66375264  0.51637562    -0.34500
C1815       C  0.14656293  0.66477086  0.52489227     0.01700
C1816       C  0.15190648  0.67289198  0.52477117     0.07700
C1817       C  0.15070333  0.67653998  0.51589797    -0.05400
H1818       H  0.14600298  0.65977090  0.53056347     0.08400
H1819       H  0.15402797  0.68266547  0.51297525     0.09600
Cu1820     Cu  0.13448695  0.65281734  0.51079731     0.44200
Cu1821     Cu  0.14228468  0.67210782  0.49698455     0.42000
Cu1822     Cu  0.13321663  0.65303982  0.48442323     0.43900
N1823       N  0.12645708  0.64363669  0.50257647    -0.34100
N1824       N  0.12597645  0.64382675  0.49328475    -0.28300
C1825       C  0.11976178  0.63740070  0.49043412    -0.04400
C1826       C  0.11614614  0.63288112  0.49821435     0.07800
C1827       C  0.12059520  0.63700869  0.50578888     0.01600
H1828       H  0.11789430  0.63621143  0.48318604     0.09200
H1829       H  0.11944212  0.63551724  0.51313229     0.08300
N1830       N  0.14020432  0.66405397  0.47770867    -0.35500
N1831       N  0.14311989  0.67130609  0.48262206    -0.27700
C1832       C  0.14764295  0.67726781  0.47700453    -0.02900
C1833       C  0.14768201  0.67366822  0.46799923     0.05700
C1834       C  0.14285570  0.66524887  0.46868886     0.03800
H1835       H  0.15100449  0.68357230  0.47945418     0.08900
H1836       H  0.14160926  0.66025799  0.46312140     0.07700
C1837       C  0.06844658  0.58390581  0.50314026     0.80800
N1838       N  0.06182709  0.58382622  0.49636568    -0.77500
C1839       C  0.05518754  0.57706337  0.49623522     0.83300
N1840       N  0.05535413  0.57016495  0.50285459    -0.77400
C1841       C  0.06198355  0.57011545  0.50965169     0.83400
N1842       N  0.06841982  0.57707526  0.50979736    -0.79100
N1843       N  0.12552548  0.51525666  0.62903715    -0.26700
N1844       N  0.12533820  0.50597159  0.62942140    -0.34500
C1845       C  0.11943327  0.50274791  0.62286888     0.01700
C1846       C  0.11566898  0.51027311  0.61805324     0.07700
C1847       C  0.11973085  0.51810092  0.62215687    -0.05400
H1848       H  0.11785047  0.49541537  0.62181806     0.08400
H1849       H  0.11837128  0.52535731  0.62045254     0.09600
Cu1850     Cu  0.13255095  0.49766545  0.63910224     0.44200
Cu1851     Cu  0.13311684  0.52380897  0.63840395     0.42000
Cu1852     Cu  0.13912073  0.51062914  0.65893437     0.43900
N1853       N  0.13957499  0.49152746  0.65038268    -0.34100
N1854       N  0.14160614  0.49649668  0.65790604    -0.28300
C1855       C  0.14672796  0.49132072  0.66379493    -0.04400
C1856       C  0.14805424  0.48257629  0.65984364     0.07800
C1857       C  0.14335759  0.48292484  0.65133227     0.01600
H1858       H  0.14967818  0.49395445  0.67024240     0.09200
H1859       H  0.14308953  0.47749739  0.64604348     0.08300
N1860       N  0.14167409  0.52471467  0.65762923    -0.35500
N1861       N  0.14020393  0.52969137  0.64995825    -0.27700
C1862       C  0.14436215  0.53812457  0.65106152    -0.02900
C1863       C  0.14861541  0.53833031  0.65984687     0.05700
C1864       C  0.14666669  0.52971527  0.66374689     0.03800
H1865       H  0.14460378  0.54352397  0.64574551     0.08900
H1866       H  0.14923062  0.52698211  0.67032761     0.07700
C1867       C  0.06677361  0.51291580  0.56991810     0.80800
N1868       N  0.06058330  0.50572146  0.56980463    -0.77500
C1869       C  0.05357924  0.50555442  0.56340587     0.83300
N1870       N  0.05299877  0.51252354  0.55689001    -0.77400
C1871       C  0.05924876  0.51965644  0.55678728     0.83400
N1872       N  0.06600586  0.51987922  0.56343240    -0.79100
C1873       C  0.08664077  0.51734170  0.58758285     0.16600
C1874       C  0.09359132  0.52120448  0.59329668    -0.32500
C1875       C  0.09839211  0.51516300  0.59938948     0.20900
C1876       C  0.09642126  0.50566736  0.59968481     0.03100
C1877       C  0.08943688  0.50180882  0.59400578    -0.22200
C1878       C  0.08455101  0.50787536  0.58800460     0.12300
S1879       S  0.08007503  0.52348837  0.57970851    -0.05900
C1880       C  0.07430191  0.51324883  0.57701788    -0.09300
C1881       C  0.07743093  0.50549794  0.58202630    -0.25900
S1882       S  0.10303537  0.49952488  0.60751533    -0.03100
C1883       C  0.10845673  0.50986534  0.61059456    -0.16600
C1884       C  0.10526282  0.51761779  0.60563307    -0.14600
H1885       H  0.09516132  0.52861677  0.59303212     0.20800
H1886       H  0.08784337  0.49440230  0.59429592     0.16800
H1887       H  0.07471316  0.49847256  0.58125864     0.19300
H1888       H  0.10778396  0.52469474  0.60656921     0.12700
C1889       C  0.05598829  0.53657898  0.53574602     0.16600
C1890       C  0.05317330  0.54124923  0.52752636    -0.32500
C1891       C  0.05795075  0.54944215  0.52493374     0.20900
C1892       C  0.06523820  0.55278357  0.53027345     0.03100
C1893       C  0.06806617  0.54810416  0.53845848    -0.22200
C1894       C  0.06326780  0.53995353  0.54107208     0.12300
S1895       S  0.05107599  0.52657998  0.54015510    -0.05900
C1896       C  0.05891533  0.52691396  0.54929200    -0.09300
C1897       C  0.06497674  0.53446109  0.54882258    -0.25900
S1898       S  0.07010022  0.56284570  0.52603354    -0.03100
C1899       C  0.06220731  0.56267327  0.51695631    -0.16600
C1900       C  0.05618145  0.55507691  0.51727493    -0.14600
H1901       H  0.04747685  0.53863649  0.52336131     0.20800
H1902       H  0.07374474  0.55073372  0.54263936     0.16800
H1903       H  0.07038624  0.53585387  0.55387807     0.19300
H1904       H  0.05075928  0.55377163  0.51221092     0.12700
C1905       C  0.09618682  0.61512635  0.49493408     0.16600
C1906       C  0.08885547  0.60962643  0.49154452    -0.32500
C1907       C  0.08480769  0.60311944  0.49769943     0.20900
C1908       C  0.08796278  0.60209822  0.50681847     0.03100
C1909       C  0.09521388  0.60769700  0.51025124    -0.22200
C1910       C  0.09923534  0.61424220  0.50410425     0.12300
S1911       S  0.10212039  0.62325866  0.48850757    -0.05900
C1912       C  0.10873881  0.62565327  0.49829161    -0.09300
C1913       C  0.10639182  0.62030160  0.50609371    -0.25900
S1914       S  0.08238271  0.59353886  0.51304201    -0.03100
C1915       C  0.07563343  0.59134274  0.50329925    -0.16600
C1916       C  0.07768444  0.59704939  0.49567089    -0.14600
H1917       H  0.08645365  0.61034240  0.48438893     0.20800
H1918       H  0.09766246  0.60693163  0.51738488     0.16800
H1919       H  0.10977751  0.62075988  0.51284659     0.19300
H1920       H  0.07426286  0.59665862  0.48892921     0.12700
C1921       C  0.02120338  0.47868683  0.55739376     0.16600
C1922       C  0.02537395  0.48722961  0.55492075    -0.32500
C1923       C  0.03367696  0.48967855  0.55940918     0.20900
C1924       C  0.03763119  0.48389068  0.56610315     0.03100
C1925       C  0.03344342  0.47534630  0.56859453    -0.22200
C1926       C  0.02514447  0.47288219  0.56408468     0.12300
S1927       S  0.01119938  0.47442938  0.55265567    -0.05900
C1928       C  0.01226255  0.46468313  0.55975525    -0.09300
C1929       C  0.02003482  0.46484967  0.56549596    -0.25900
S1930       S  0.04772268  0.48814172  0.57071694    -0.03100
C1931       C  0.04667483  0.49782468  0.56351942    -0.16600
C1932       C  0.03881997  0.49765537  0.55789090    -0.14600
H1933       H  0.02229572  0.49175680  0.54968656     0.20800
H1934       H  0.03653536  0.47080430  0.57380638     0.16800
H1935       H  0.02188577  0.45936362  0.57039524     0.19300
H1936       H  0.03695481  0.50309087  0.55294012     0.12700
C1937       C  0.00692945  0.41608338  0.59823387     0.16600
C1938       C  0.01042249  0.42305158  0.59224240    -0.32500
C1939       C  0.00447610  0.42675027  0.58537600     0.20900
C1940       C  0.99549646  0.42352919  0.58440111     0.03100
C1941       C  0.99198672  0.41659705  0.59042366    -0.22200
C1942       C  0.99788368  0.41302227  0.59739890     0.12300
S1943       S  0.01298422  0.41079565  0.60709671    -0.05900
C1944       C  0.00317150  0.40452369  0.60987416    -0.09300
C1945       C  0.99567577  0.40644286  0.60408030    -0.25900
S1946       S  0.98942401  0.42885953  0.57558486    -0.03100
C1947       C  0.99901093  0.43567670  0.57329127    -0.16600
C1948       C  0.00651179  0.43374888  0.57906802    -0.14600
H1949       H  0.01744842  0.42554884  0.59296114     0.20800
H1950       H  0.98493404  0.41416025  0.58976011     0.16800
H1951       H  0.98894834  0.40319562  0.60471010     0.19300
H1952       H  0.01311091  0.43729618  0.57868737     0.12700
C1953       C  0.95988603  0.44366572  0.52579633     0.16600
C1954       C  0.96489016  0.44023336  0.53352467    -0.32500
C1955       C  0.97257073  0.44543643  0.53659724     0.20900
C1956       C  0.97518031  0.45363228  0.53210508     0.03100
C1957       C  0.97024442  0.45700406  0.52434549    -0.22200
C1958       C  0.96254390  0.45185924  0.52133627     0.12300
S1959       S  0.95017889  0.43861253  0.52114465    -0.05900
C1960       C  0.94969655  0.44765785  0.51312264    -0.09300
C1961       C  0.95677028  0.45415667  0.51406447    -0.25900
S1962       S  0.98455230  0.45903671  0.53694554    -0.03100
C1963       C  0.98501957  0.45020735  0.54519470    -0.16600
C1964       C  0.97820746  0.44341747  0.54411649    -0.14600
H1965       H  0.96282015  0.43385667  0.53705787     0.20800
H1966       H  0.97225777  0.46343182  0.52086771     0.16800
H1967       H  0.95760255  0.46031724  0.50971058     0.19300
H1968       H  0.97738680  0.43736413  0.54861672     0.12700
C1969       C  0.90797645  0.42651341  0.49461133     0.16600
C1970       C  0.90046958  0.42145953  0.49095622    -0.32500
C1971       C  0.89689084  0.41408962  0.49638203     0.20900
C1972       C  0.90055549  0.41194569  0.50510607     0.03100
C1973       C  0.90807343  0.41696300  0.50873544    -0.22200
C1974       C  0.91171797  0.42424351  0.50326802     0.12300
S1975       S  0.91339508  0.43562266  0.48910454    -0.05900
C1976       C  0.92088564  0.43628716  0.49849851    -0.09300
C1977       C  0.91913067  0.42979499  0.50552227    -0.25900
S1978       S  0.89523878  0.40283256  0.51064314    -0.03100
C1979       C  0.88805894  0.40174167  0.50105411    -0.16600
C1980       C  0.88973457  0.40822106  0.49398957    -0.14600
H1981       H  0.89759004  0.42315438  0.48415588     0.20800
H1982       H  0.91099644  0.41522331  0.51550641     0.16800
H1983       H  0.92308977  0.42914227  0.51193380     0.19300
H1984       H  0.88593659  0.40862079  0.48746162     0.12700
C1985       C  0.94172288  0.47680130  0.47609075     0.16600
C1986       C  0.94551090  0.48467992  0.47167031    -0.32500
C1987       C  0.94079694  0.48837195  0.46392322     0.20900
C1988       C  0.93269846  0.48434393  0.46065805     0.03100
C1989       C  0.92890866  0.47642842  0.46507124    -0.22200
C1990       C  0.93359925  0.47277560  0.47288514     0.12300
S1991       S  0.94635788  0.47144701  0.48568068    -0.05900
C1992       C  0.93725183  0.46367390  0.48546654    -0.09300
C1993       C  0.93098576  0.46521402  0.47824400    -0.25900
S1994       S  0.92801892  0.48994364  0.45119729    -0.03100
C1995       C  0.93702764  0.49785569  0.45169878    -0.16600
C1996       C  0.94331371  0.49611950  0.45882681    -0.14600
H1997       H  0.95182843  0.48784532  0.47421419     0.20800
H1998       H  0.92255524  0.47330397  0.46256947     0.16800
H1999       H  0.92484346  0.46106752  0.47700828     0.19300
H2000       H  0.94937976  0.50032435  0.46024130     0.12700
C2001       C  0.90075468  0.50859282  0.40396833     0.16600
C2002       C  0.90615444  0.50460554  0.41108507    -0.32500
C2003       C  0.91311421  0.51015239  0.41507335     0.20900
C2004       C  0.91469528  0.51925312  0.41208287     0.03100
C2005       C  0.90925498  0.52326318  0.40498250    -0.22200
C2006       C  0.90223949  0.51772720  0.40102607     0.12300
S2007       S  0.89200758  0.50298684  0.39823750    -0.05900
C2008       C  0.89023248  0.51306818  0.39181684    -0.09300
C2009       C  0.89619353  0.52035258  0.39407496    -0.25900
S2010       S  0.92353470  0.52477256  0.41782246    -0.03100
C2011       C  0.92503344  0.51474093  0.42439673    -0.16600
C2012       C  0.91899125  0.50754034  0.42213709    -0.14600
H2013       H  0.90497064  0.49748760  0.41342643     0.20800
H2014       H  0.91042649  0.53038684  0.40265672     0.16800
H2015       H  0.89615895  0.52718524  0.39077925     0.19300
H2016       H  0.91888053  0.50073975  0.42550823     0.12700
C2017       C  0.97175123  0.55255465  0.43667026     0.16600
C2018       C  0.96432320  0.54763762  0.43270129    -0.32500
C2019       C  0.96075896  0.53997134  0.43769269     0.20900
C2020       C  0.96440740  0.53731479  0.44627743     0.03100
C2021       C  0.97181394  0.54227436  0.45028114    -0.22200
C2022       C  0.97541275  0.54993128  0.44526117     0.12300
S2023       S  0.97712392  0.56194225  0.43162363    -0.05900
C2024       C  0.98445814  0.56237927  0.44115670    -0.09300
C2025       C  0.98270773  0.55554218  0.44787750    -0.25900
S2026       S  0.95919500  0.52768703  0.45110151    -0.03100
C2027       C  0.95199978  0.52723847  0.44145341    -0.16600
C2028       C  0.95363402  0.53425737  0.43491311    -0.14600
H2029       H  0.96148488  0.54966165  0.42597290     0.20800
H2030       H  0.97469678  0.54020546  0.45697522     0.16800
H2031       H  0.98658876  0.55468931  0.45431291     0.19300
H2032       H  0.94986636  0.53508799  0.42840439     0.12700
C2033       C  0.02193433  0.57144529  0.47033379     0.16600
C2034       C  0.02691901  0.56806337  0.47810989    -0.32500
C2035       C  0.03477096  0.57312225  0.48099851     0.20900
C2036       C  0.03746460  0.58122240  0.47638929     0.03100
C2037       C  0.03246161  0.58462219  0.46867614    -0.22200
C2038       C  0.02469019  0.57952990  0.46574145     0.12300
S2039       S  0.01237159  0.56624194  0.46551558    -0.05900
C2040       C  0.01215040  0.57500744  0.45715996    -0.09300
C2041       C  0.01912362  0.58160650  0.45822264    -0.25900
S2042       S  0.04720050  0.58631118  0.48084636    -0.03100
C2043       C  0.04775615  0.57743984  0.48905164    -0.16600
C2044       C  0.04064776  0.57091492  0.48828513    -0.14600
H2045       H  0.02482798  0.56171815  0.48168618     0.20800
H2046       H  0.03460046  0.59092150  0.46504520     0.16800
H2047       H  0.02013756  0.58758797  0.45366511     0.19300
H2048       H  0.03983317  0.56486840  0.49279519     0.12700
C2049       C  0.00560471  0.60170238  0.41730344     0.16600
C2050       C  0.00976581  0.60857584  0.41163280    -0.32500
C2051       C  0.00441931  0.61259932  0.40443710     0.20900
C2052       C  0.99530504  0.60996865  0.40305151     0.03100
C2053       C  0.99118193  0.60304821  0.40865577    -0.22200
C2054       C  0.99655162  0.59894810  0.41575883     0.12300
S2055       S  0.01085701  0.59599966  0.42642861    -0.05900
C2056       C  0.00080216  0.58970834  0.42808781    -0.09300
C2057       C  0.99378424  0.59203659  0.42186156    -0.25900
S2058       S  0.98990909  0.61577588  0.39411508    -0.03100
C2059       C  0.00006535  0.62174183  0.39203964    -0.16600
C2060       C  0.00721746  0.61930971  0.39809216    -0.14600
H2061       H  0.01686344  0.61068027  0.41276905     0.20800
H2062       H  0.98408737  0.60093539  0.40751320     0.16800
H2063       H  0.98698236  0.58888298  0.42183809     0.19300
H2064       H  0.01407767  0.62231874  0.39790053     0.12700
C2065       C  0.82348280  0.34374656  0.43813921     0.16600
C2066       C  0.82937908  0.35050956  0.44206731    -0.32500
C2067       C  0.83325050  0.34857456  0.45088998     0.20900
C2068       C  0.83127596  0.34029021  0.45555939     0.03100
C2069       C  0.82528524  0.33362177  0.45171204    -0.22200
C2070       C  0.82145425  0.33553391  0.44290834     0.12300
S2071       S  0.81849022  0.34448398  0.42731843    -0.05900
C2072       C  0.81360350  0.33362524  0.42927113    -0.09300
C2073       C  0.81572116  0.32974705  0.43790759    -0.25900
S2074       S  0.83683698  0.33901991  0.46597821    -0.03100
C2075       C  0.84190735  0.34980030  0.46414820    -0.16600
C2076       C  0.83932914  0.35411948  0.45582474    -0.14600
H2077       H  0.83099580  0.35691473  0.43834390     0.20800
H2078       H  0.82378974  0.32714478  0.45536642     0.16800
H2079       H  0.81341552  0.32293827  0.44029900     0.19300
H2080       H  0.84183151  0.36086593  0.45346577     0.12700
C2081       C  0.81873535  0.46154052  0.32596270     0.16600
C2082       C  0.82341126  0.47009818  0.32656242    -0.32500
C2083       C  0.82893581  0.47166652  0.33448555     0.20900
C2084       C  0.82985973  0.46502328  0.34150740     0.03100
C2085       C  0.82521023  0.45641913  0.34088573    -0.22200
C2086       C  0.81962746  0.45486836  0.33296613     0.12300
S2087       S  0.81155230  0.45837735  0.31699110    -0.05900
C2088       C  0.80970446  0.44791850  0.32270896    -0.09300
C2089       C  0.81447448  0.44703200  0.33112808    -0.25900
S2090       S  0.83683235  0.46844641  0.35060162    -0.03100
C2091       C  0.83843140  0.47896812  0.34488315    -0.16600
C2092       C  0.83382539  0.47962803  0.33636824    -0.14600
H2093       H  0.82271056  0.47534962  0.32112653     0.20800
H2094       H  0.82585378  0.45119816  0.34635659     0.16800
H2095       H  0.81417044  0.44100185  0.33571751     0.19300
H2096       H  0.83397123  0.48564761  0.33175831     0.12700
C2097       C  0.79303520  0.36424088  0.34047486     0.16600
C2098       C  0.79698392  0.35842732  0.34725092    -0.32500
C2099       C  0.79160152  0.35108223  0.35072085     0.20900
C2100       C  0.78271086  0.34944358  0.34751233     0.03100
C2101       C  0.77880603  0.35516638  0.34054071    -0.22200
C2102       C  0.78417136  0.36263788  0.33714054     0.12300
S2103       S  0.79819932  0.37401627  0.33614330    -0.05900
C2104       C  0.78833851  0.37604887  0.32972587    -0.09300
C2105       C  0.78146683  0.36936667  0.33082094    -0.25900
S2106       S  0.77717336  0.34049226  0.35319099    -0.03100
C2107       C  0.78692443  0.33910528  0.36001094    -0.16600
C2108       C  0.79407150  0.34515390  0.35778907    -0.14600
H2109       H  0.80384883  0.35977742  0.34995342     0.20800
H2110       H  0.77181085  0.35403656  0.33810301     0.16800
H2111       H  0.77472988  0.36966482  0.32753397     0.19300
H2112       H  0.80066664  0.34544127  0.36135341     0.12700
C2113       C  0.75457374  0.41196139  0.25511084     0.16600
C2114       C  0.74998168  0.40809029  0.24740135    -0.32500
C2115       C  0.74615670  0.41427474  0.24084436     0.20900
C2116       C  0.74683302  0.42390507  0.24188979     0.03100
C2117       C  0.75151827  0.42779474  0.24958697    -0.22200
C2118       C  0.75538241  0.42158692  0.25616051     0.12300
S2119       S  0.75943976  0.40558494  0.26390973    -0.05900
C2120       C  0.76269568  0.41596938  0.26910527    -0.09300
C2121       C  0.76011652  0.42394296  0.26417512    -0.25900
S2122       S  0.74151182  0.43015137  0.23318382    -0.03100
C2123       C  0.73843200  0.41965154  0.22807080    -0.16600
C2124       C  0.74139325  0.41179978  0.23294514    -0.14600
H2125       H  0.74936347  0.40057262  0.24658029     0.20800
H2126       H  0.75207939  0.43531104  0.25044135     0.16800
H2127       H  0.76148595  0.43105904  0.26640249     0.19300
H2128       H  0.74008412  0.40462421  0.23088357     0.12700
C2129       C  0.70587145  0.35668190  0.14463488     0.16600
C2130       C  0.70263524  0.36456497  0.14941240    -0.32500
C2131       C  0.70767822  0.36761670  0.15718443     0.20900
C2132       C  0.71548596  0.36291472  0.16028105     0.03100
C2133       C  0.71867130  0.35489006  0.15555221    -0.22200
C2134       C  0.71373424  0.35196116  0.14757450     0.12300
S2135       S  0.70104763  0.35244471  0.13464231    -0.05900
C2136       C  0.70977135  0.34424449  0.13421178    -0.09300
C2137       C  0.71600970  0.34474827  0.14160183    -0.25900
S2138       S  0.72085566  0.36819772  0.16959187    -0.03100
C2139       C  0.71261917  0.37693125  0.16903691    -0.16600
C2140       C  0.70598257  0.37558338  0.16218383    -0.14600
H2141       H  0.69661861  0.36836611  0.14696724     0.20800
H2142       H  0.72488196  0.35129527  0.15778944     0.16800
H2143       H  0.72199645  0.34027307  0.14242568     0.19300
H2144       H  0.70034935  0.38035398  0.16069908     0.12700
C2145       C  0.75501709  0.25805802  0.10162855     0.16600
C2146       C  0.74999746  0.26562781  0.10526269    -0.32500
C2147       C  0.74696607  0.27251171  0.09896430     0.20900
C2148       C  0.74874203  0.27185700  0.08943487     0.03100
C2149       C  0.75386042  0.26431113  0.08580136    -0.22200
C2150       C  0.75698290  0.25744997  0.09213272     0.12300
S2151       S  0.75916688  0.24896754  0.10814265    -0.05900
C2152       C  0.76373021  0.24426768  0.09801117    -0.09300
C2153       C  0.76204655  0.24956386  0.09001254    -0.25900
S2154       S  0.74416533  0.28083623  0.08296324    -0.03100
C2155       C  0.73999342  0.28559493  0.09324426    -0.16600
C2156       C  0.74203006  0.28039842  0.10119578    -0.14600
H2157       H  0.74850485  0.26612272  0.11268755     0.20800
H2158       H  0.75531756  0.26379613  0.07837261     0.16800
H2159       H  0.76431003  0.24770841  0.08302040     0.19300
H2160       H  0.73989475  0.28221749  0.10824150     0.12700
C2161       C  0.78393487  0.17351959  0.15204099     0.16600
C2162       C  0.78117176  0.16940068  0.16055168    -0.32500
C2163       C  0.78580263  0.16122127  0.16344803     0.20900
C2164       C  0.79297014  0.15748164  0.15818784     0.03100
C2165       C  0.79576196  0.16161898  0.14977515    -0.22200
C2166       C  0.79103277  0.16963261  0.14680572     0.12300
S2167       S  0.77897803  0.18317262  0.14695712    -0.05900
C2168       C  0.78647767  0.18180169  0.13764556    -0.09300
C2169       C  0.79252159  0.17432612  0.13859952    -0.25900
S2170       S  0.79758472  0.14745777  0.16260562    -0.03100
C2171       C  0.78968611  0.14808906  0.17162029    -0.16600
C2172       C  0.78387406  0.15583817  0.17121838    -0.14600
H2173       H  0.77553952  0.17231024  0.16461353     0.20800
H2174       H  0.80125916  0.15858944  0.14560483     0.16800
H2175       H  0.79769698  0.17230784  0.13350851     0.19300
H2176       H  0.77844378  0.15735354  0.17621212     0.12700
C2177       C  0.75264499  0.11314887  0.24686106     0.16600
C2178       C  0.74835209  0.11691424  0.25482602    -0.32500
C2179       C  0.74440304  0.11065509  0.26125720     0.20900
C2180       C  0.74468838  0.10105245  0.25984164     0.03100
C2181       C  0.74914952  0.09726391  0.25193780    -0.22200
C2182       C  0.75312098  0.10354310  0.24548701     0.12300
S2183       S  0.75751037  0.11962762  0.23810488    -0.05900
C2184       C  0.76038263  0.10931416  0.23251959    -0.09300
C2185       C  0.75763631  0.10128820  0.23728967    -0.25900
S2186       S  0.73900789  0.09472452  0.26826905    -0.03100
C2187       C  0.73628187  0.10513715  0.27377891    -0.16600
C2188       C  0.73970035  0.11302492  0.26926222    -0.14600
H2189       H  0.74798836  0.12441814  0.25589758     0.20800
H2190       H  0.74939795  0.08976704  0.25079867     0.16800
H2191       H  0.75877260  0.09419952  0.23484184     0.19300
H2192       H  0.73859270  0.12016809  0.27155800     0.12700
C2193       C  0.74441777  0.25426377  0.39874558     0.16600
C2194       C  0.74849809  0.26204713  0.39444800    -0.32500
C2195       C  0.75321735  0.26840781  0.40018558     0.20900
C2196       C  0.75387159  0.26709908  0.40979317     0.03100
C2197       C  0.74964002  0.25936726  0.41413029    -0.22200
C2198       C  0.74489447  0.25298244  0.40837372     0.12300
S2199       S  0.73880183  0.24557558  0.39288586    -0.05900
C2200       C  0.73697279  0.24010771  0.40350022    -0.09300
C2201       C  0.74052145  0.24489182  0.41117365    -0.25900
S2202       S  0.76028419  0.27546466  0.41540891    -0.03100
C2203       C  0.76199771  0.28081547  0.40469778    -0.16600
C2204       C  0.75778661  0.27627440  0.39724008    -0.14600
H2205       H  0.74812582  0.26303020  0.38692712     0.20800
H2206       H  0.75013696  0.25830567  0.42163068     0.16800
H2207       H  0.74013316  0.24246975  0.41835672     0.19300
H2208       H  0.75818294  0.27849423  0.38999309     0.12700
C2209       C  0.70117384  0.16933783  0.35506447     0.16600
C2210       C  0.69825308  0.16097432  0.35091785    -0.32500
C2211       C  0.70347264  0.15749166  0.34342973     0.20900
C2212       C  0.71113572  0.16221797  0.34003342     0.03100
C2213       C  0.71401184  0.17066237  0.34413398    -0.22200
C2214       C  0.70891347  0.17403750  0.35179860     0.12300
S2215       S  0.69616842  0.17425499  0.36467234    -0.05900
C2216       C  0.70472060  0.18263868  0.36449119    -0.09300
C2217       C  0.71097384  0.18172496  0.35717727    -0.25900
S2218       S  0.71670150  0.15656986  0.33109309    -0.03100
C2219       C  0.70872652  0.14766500  0.33212222    -0.16600
C2220       C  0.70205008  0.14917233  0.33892233    -0.14600
H2221       H  0.69233732  0.15718791  0.35360580     0.20800
H2222       H  0.72011171  0.17428138  0.34165301     0.16800
H2223       H  0.71688080  0.18622954  0.35603952     0.19300
H2224       H  0.69653190  0.14435596  0.34064017     0.12700
C2225       C  0.09349044  0.01943609  0.89966479     0.16600
C2226       C  0.08636409  0.02288957  0.90541369    -0.32500
C2227       C  0.08272390  0.01687330  0.91229720     0.20900
C2228       C  0.08606824  0.00784053  0.91343522     0.03100
C2229       C  0.09312133  0.00436368  0.90763093    -0.22200
C2230       C  0.09672745  0.01035598  0.90072319     0.12300
S2231       S  0.09893341  0.02562948  0.89098838    -0.05900
C2232       C  0.10559263  0.01585062  0.88866432    -0.09300
C2233       C  0.10361463  0.00824776  0.89441816    -0.25900
S2234       S  0.08089717  0.00171397  0.92230842    -0.03100
C2235       C  0.07404688  0.01137193  0.92448918    -0.16600
C2236       C  0.07578962  0.01892134  0.91857843    -0.14600
H2237       H  0.08378906  0.02996718  0.90457726     0.20800
H2238       H  0.09571059  0.99729340  0.90848354     0.16800
H2239       H  0.10707158  0.00152800  0.89406540     0.19300
H2240       H  0.07221547  0.02558369  0.91889787     0.12700
C2241       C  0.02740055  0.05103139  0.93241681     0.16600
C2242       C  0.03534016  0.04626046  0.92936439    -0.32500
C2243       C  0.03817669  0.03835572  0.93448494     0.20900
C2244       C  0.03328275  0.03530345  0.94226145     0.03100
C2245       C  0.02531922  0.04003564  0.94528010    -0.22200
C2246       C  0.02252373  0.04797128  0.94019836     0.12300
S2247       S  0.02292993  0.06088144  0.92729608    -0.05900
C2248       C  0.01440362  0.06092280  0.93575148    -0.09300
C2249       C  0.01506248  0.05359507  0.94213368    -0.25900
S2250       S  0.03785871  0.02562009  0.94754938    -0.03100
C2251       C  0.04649927  0.02564700  0.93920913    -0.16600
C2252       C  0.04577035  0.03284375  0.93269479    -0.14600
H2253       H  0.03917838  0.04864726  0.92330279     0.20800
H2254       H  0.02150440  0.03767281  0.95136778     0.16800
H2255       H  0.01035975  0.05246433  0.94792931     0.19300
H2256       H  0.05052407  0.03397425  0.92694364     0.12700
C2257       C  0.99581114  0.10254095  0.91319546     0.16600
C2258       C  0.99230845  0.11035848  0.90839366    -0.32500
C2259       C  0.99788819  0.11445533  0.90146976     0.20900
C2260       C  0.00657613  0.11091921  0.89940931     0.03100
C2261       C  0.01003300  0.10301482  0.90412700    -0.22200
C2262       C  0.00445191  0.09892138  0.91106809     0.12300
S2263       S  0.99023113  0.09679926  0.92203954    -0.05900
C2264       C  0.99959486  0.08936170  0.92288891    -0.09300
C2265       C  0.00664417  0.09131654  0.91656880    -0.25900
S2266       S  0.01239481  0.11711653  0.89102373    -0.03100
C2267       C  0.00300827  0.12453859  0.89022460    -0.16600
C2268       C  0.99577452  0.12221754  0.89618277    -0.14600
H2269       H  0.98556457  0.11319536  0.91006395     0.20800
H2270       H  0.01682266  0.10024772  0.90253647     0.16800
H2271       H  0.01307862  0.08746679  0.91610767     0.19300
H2272       H  0.98936463  0.12609081  0.89675064     0.12700
C2273       C  0.82962123  0.17076795  0.04850779     0.16600
C2274       C  0.82513151  0.17136044  0.05723605    -0.32500
C2275       C  0.81977550  0.17941282  0.05904617     0.20900
C2276       C  0.81890293  0.18650756  0.05246852     0.03100
C2277       C  0.82337438  0.18591359  0.04380445    -0.22200
C2278       C  0.82872111  0.17792518  0.04201646     0.12300
S2279       S  0.83649635  0.16167642  0.04477511    -0.05900
C2280       C  0.83812741  0.16765271  0.03437601    -0.09300
C2281       C  0.83354729  0.17619732  0.03398572    -0.25900
S2282       S  0.81213624  0.19569036  0.05591578    -0.03100
C2283       C  0.81045756  0.19000629  0.06641704    -0.16600
C2284       C  0.81493817  0.18139204  0.06708921    -0.14600
H2285       H  0.82579402  0.16582325  0.06238279     0.20800
H2286       H  0.82272572  0.19146022  0.03866314     0.16800
H2287       H  0.83369757  0.18100090  0.02812343     0.19300
H2288       H  0.81469231  0.17680947  0.07312976     0.12700
C2289       C  0.96115096  0.07983646  0.96992564     0.16600
C2290       C  0.96555993  0.08276471  0.96165557    -0.32500
C2291       C  0.97367481  0.07806289  0.95897047     0.20900
C2292       C  0.97722432  0.07075246  0.96426593     0.03100
C2293       C  0.97281704  0.06782616  0.97252552    -0.22200
C2294       C  0.96471944  0.07253610  0.97521985     0.12300
S2295       S  0.95126116  0.08463688  0.97442298    -0.05900
C2296       C  0.95191224  0.07671376  0.98354677    -0.09300
C2297       C  0.95946083  0.07071366  0.98302526    -0.25900
S2298       S  0.98713417  0.06596216  0.95983847    -0.03100
C2299       C  0.98655528  0.07391623  0.95074893    -0.16600
C2300       C  0.97899989  0.07991718  0.95121143    -0.14600
H2301       H  0.96279826  0.08847210  0.95750731     0.20800
H2302       H  0.97558883  0.06212971  0.97668209     0.16800
H2303       H  0.96103131  0.06529263  0.98809611     0.19300
H2304       H  0.97748703  0.08536376  0.94614996     0.12700
C2305       C  0.91087259  0.09907639  0.00254571     0.16600
C2306       C  0.90309070  0.10386318  0.00598055    -0.32500
C2307       C  0.89965001  0.11140637  0.00068875     0.20900
C2308       C  0.90374523  0.11403816  0.99230990     0.03100
C2309       C  0.91157032  0.10928826  0.98890083    -0.22200
C2310       C  0.91503506  0.10176329  0.99421854     0.12300
S2311       S  0.91604977  0.08971726  0.00790626    -0.05900
C2312       C  0.92398746  0.08940831  0.99888062    -0.09300
C2313       C  0.92256796  0.09626281  0.99208844    -0.25900
S2314       S  0.89837712  0.12323121  0.98684237    -0.03100
C2315       C  0.89055304  0.12361139  0.99597593    -0.16600
C2316       C  0.89213079  0.11690132  0.00285677    -0.14600
H2317       H  0.89984348  0.10178272  0.01249536     0.20800
H2318       H  0.91479945  0.11134934  0.98237039     0.16800
H2319       H  0.92681332  0.09717181  0.98590336     0.19300
H2320       H  0.88792838  0.11599597  0.00906918     0.12700
C2321       C  0.81456428  0.06477888  0.17220647     0.16600
C2322       C  0.81589955  0.05609584  0.16785159    -0.32500
C2323       C  0.82327465  0.05525916  0.16153100     0.20900
C2324       C  0.82916022  0.06267234  0.15965291     0.03100
C2325       C  0.82782085  0.07139027  0.16401455    -0.22200
C2326       C  0.82036435  0.07225759  0.17028238     0.12300
S2327       S  0.80584858  0.06726817  0.17990481    -0.05900
C2328       C  0.80994088  0.07857846  0.18044983    -0.09300
C2329       C  0.81774217  0.08019615  0.17499694    -0.25900
S2330       S  0.83771243  0.06008573  0.15173576    -0.03100
C2331       C  0.83321870  0.04892323  0.15090425    -0.16600
C2332       C  0.82554211  0.04741489  0.15654717    -0.14600
H2333       H  0.81133152  0.05025747  0.16926100     0.20800
H2334       H  0.83232962  0.07725580  0.16252989     0.16800
H2335       H  0.82125157  0.08686347  0.17439493     0.19300
H2336       H  0.82176583  0.04089687  0.15705004     0.12700
C2337       C  0.94338833  0.04822815  0.02164226     0.16600
C2338       C  0.94649935  0.04002813  0.02613514    -0.32500
C2339       C  0.94167558  0.03697092  0.03413651     0.20900
C2340       C  0.93413265  0.04191593  0.03751881     0.03100
C2341       C  0.93105121  0.05011640  0.03305539    -0.22200
C2342       C  0.93582542  0.05313043  0.02503566     0.12300
S2343       S  0.94815065  0.05300944  0.01175304    -0.05900
C2344       C  0.93983244  0.06169493  0.01214110    -0.09300
C2345       C  0.93375523  0.06084360  0.01963475    -0.25900
S2346       S  0.92909709  0.03702748  0.04717493    -0.03100
C2347       C  0.93717794  0.02813029  0.04670166    -0.16600
C2348       C  0.94347911  0.02905643  0.03939009    -0.14600
H2349       H  0.95237022  0.03615641  0.02345987     0.20800
H2350       H  0.92512260  0.05393723  0.03567506     0.16800
H2351       H  0.92807372  0.06558337  0.02103307     0.19300
H2352       H  0.94900073  0.02414912  0.03791914     0.12700
C2353       C  0.91022796  0.00755258  0.08417285     0.16600
C2354       C  0.90418238  0.00365961  0.09083826    -0.32500
C2355       C  0.89706487  0.00937868  0.09436733     0.20900
C2356       C  0.89604920  0.01857233  0.09140345     0.03100
C2357       C  0.90201699  0.02242195  0.08466139    -0.22200
C2358       C  0.90910936  0.01670357  0.08111781     0.12300
S2359       S  0.91940086  0.00185869  0.07916716    -0.05900
C2360       C  0.92171503  0.01187002  0.07278308    -0.09300
C2361       C  0.91563422  0.01920328  0.07456270    -0.25900
S2362       S  0.88723325  0.02447854  0.09676826    -0.03100
C2363       C  0.88478976  0.01446142  0.10307186    -0.16600
C2364       C  0.89057015  0.00694781  0.10099907    -0.14600
H2365       H  0.90503359  0.99650634  0.09322141     0.20800
H2366       H  0.90121073  0.02959901  0.08233286     0.16800
H2367       H  0.91599030  0.02603078  0.07126803     0.19300
H2368       H  0.89017202  0.00012851  0.10429933     0.12700
C2369       C  0.06439888  0.96985911  0.97006063     0.16600
C2370       C  0.06763555  0.97476920  0.96217804    -0.32500
C2371       C  0.06319334  0.98321168  0.95981995     0.20900
C2372       C  0.05582128  0.98656010  0.96504952     0.03100
C2373       C  0.05255836  0.98163560  0.97287925    -0.22200
C2374       C  0.05703013  0.97324797  0.97526257     0.12300
S2375       S  0.06898629  0.95963535  0.97428034    -0.05900
C2376       C  0.06091265  0.95996377  0.98317611    -0.09300
C2377       C  0.05498344  0.96760371  0.98275584    -0.25900
S2378       S  0.05139688  0.99693021  0.96114199    -0.03100
C2379       C  0.05955696  0.99683279  0.95232500    -0.16600
C2380       C  0.06538013  0.98908562  0.95249718    -0.14600
H2381       H  0.07341431  0.97216975  0.95811656     0.20800
H2382       H  0.04682743  0.98427373  0.97698886     0.16800
H2383       H  0.04952752  0.96903624  0.98775272     0.19300
H2384       H  0.07090532  0.98781430  0.94753889     0.12700
C2385       C  0.08558948  0.92075639  0.99535790     0.16600
C2386       C  0.09246510  0.91468359  0.99198542    -0.32500
C2387       C  0.09676905  0.90866317  0.99843751     0.20900
C2388       C  0.09439263  0.90874320  0.00785116     0.03100
C2389       C  0.08746210  0.91477497  0.01121428    -0.22200
C2390       C  0.08308404  0.92073619  0.00474187     0.12300
S2391       S  0.07969319  0.92869485  0.98868054    -0.05900
C2392       C  0.07365739  0.93198098  0.99858769    -0.09300
C2393       C  0.07617435  0.92710561  0.00662754    -0.25900
S2394       S  0.10051975  0.90097312  0.01455106    -0.03100
C2395       C  0.10626916  0.89745446  0.00455027    -0.16600
C2396       C  0.10354557  0.90219442  0.99649519    -0.14600
H2397       H  0.09438224  0.91465891  0.98464472     0.20800
H2398       H  0.08556129  0.91481380  0.01855804     0.16800
H2399       H  0.07323239  0.92827814  0.01350994     0.19300
H2400       H  0.10636522  0.90099319  0.98956811     0.12700
C2401       C  0.97538593  0.97876391  0.05376262     0.16600
C2402       C  0.97079219  0.98680543  0.05038829    -0.32500
C2403       C  0.96272848  0.98974043  0.05509685     0.20900
C2404       C  0.95939752  0.98481463  0.06275918     0.03100
C2405       C  0.96395651  0.97679989  0.06609549    -0.22200
C2406       C  0.97201690  0.97391767  0.06145314     0.12300
S2407       S  0.98534524  0.97408377  0.04921149    -0.05900
C2408       C  0.98497734  0.96552756  0.05779592    -0.09300
C2409       C  0.97745326  0.96636225  0.06378749    -0.25900
S2410       S  0.94962867  0.98943832  0.06760185    -0.03100
C2411       C  0.94994818  0.99822772  0.05929728    -0.16600
C2412       C  0.95732450  0.99747062  0.05306211    -0.14600
H2413       H  0.97342514  0.99063992  0.04440955     0.20800
H2414       H  0.96135882  0.97300238  0.07211581     0.16800
H2415       H  0.97603741  0.96169776  0.06960098     0.19300
H2416       H  0.95869186  0.00232730  0.04739847     0.12700
C2417       C  0.03328861  0.95313830  0.02113934     0.16600
C2418       C  0.02549449  0.95707458  0.02548240    -0.32500
C2419       C  0.02222991  0.95282315  0.03370906     0.20900
C2420       C  0.02654507  0.94498307  0.03742945     0.03100
C2421       C  0.03433796  0.94102832  0.03306913    -0.22200
C2422       C  0.03761585  0.94529395  0.02483956     0.12300
S2423       S  0.03827970  0.95731905  0.01115791    -0.05900
C2424       C  0.04634653  0.94843049  0.01190924    -0.09300
C2425       C  0.04512393  0.94253897  0.01956728    -0.25900
S2426       S  0.02150583  0.94084610  0.04742947    -0.03100
C2427       C  0.01345046  0.94974754  0.04661146    -0.16600
C2428       C  0.01472026  0.95560092  0.03894020    -0.14600
H2429       H  0.02212432  0.96319591  0.02257128     0.20800
H2430       H  0.03769918  0.93489855  0.03597159     0.16800
H2431       H  0.04947715  0.93658215  0.02119253     0.19300
H2432       H  0.01035465  0.96152806  0.03723953     0.12700
C2433       C  0.99273670  0.92674271  0.08632568     0.16600
C2434       C  0.98881455  0.92112266  0.09338366    -0.32500
C2435       C  0.99414576  0.91368647  0.09697267     0.20900
C2436       C  0.00302537  0.91200219  0.09374619     0.03100
C2437       C  0.00691621  0.91757131  0.08665837    -0.22200
C2438       C  0.00155786  0.92493071  0.08301178     0.12300
S2439       S  0.98742362  0.93607044  0.08098900    -0.05900
C2440       C  0.99714284  0.93747074  0.07411690    -0.09300
C2441       C  0.00410091  0.93101711  0.07601070    -0.25900
S2442       S  0.00842844  0.90276641  0.09907604    -0.03100
C2443       C  0.99858572  0.90099467  0.10566379    -0.16600
C2444       C  0.99153600  0.90735537  0.10376898    -0.14600
H2445       H  0.98189470  0.92246419  0.09593969     0.20800
H2446       H  0.01382247  0.91620682  0.08407349     0.16800
H2447       H  0.01069086  0.93076222  0.07242302     0.19300
H2448       H  0.98487056  0.90738666  0.10721124     0.12700
C2449       C  0.17385941  0.68445468  0.55940781     0.16600
C2450       C  0.16695177  0.67855218  0.55579407    -0.32500
C2451       C  0.16506198  0.67907290  0.54614916     0.20900
C2452       C  0.16988803  0.68518911  0.54040088     0.03100
C2453       C  0.17685683  0.69099868  0.54399148    -0.22200
C2454       C  0.17870709  0.69051954  0.55362675     0.12300
S2455       S  0.17698401  0.68507843  0.57091884    -0.05900
C2456       C  0.18491621  0.69362387  0.56795546    -0.09300
C2457       C  0.18507922  0.69578327  0.55847441    -0.25900
S2458       S  0.16641055  0.68507805  0.52900105    -0.03100
C2459       C  0.15833768  0.67667211  0.53190870    -0.16600
C2460       C  0.15845052  0.67409061  0.54129765    -0.14600
H2461       H  0.16314362  0.67384805  0.56032477     0.20800
H2462       H  0.18058751  0.69578604  0.53948084     0.16800
H2463       H  0.18955792  0.70095907  0.55529819     0.19300
H2464       H  0.15384810  0.66900109  0.54443258     0.12700
C2465       C  0.17487524  0.57038573  0.66937174     0.16600
C2466       C  0.16860653  0.56670120  0.66281790    -0.32500
C2467       C  0.16409209  0.55830682  0.66510015     0.20900
C2468       C  0.16576611  0.55382265  0.67355679     0.03100
C2469       C  0.17205908  0.55748810  0.68009531    -0.22200
C2470       C  0.17659099  0.56586631  0.67780201     0.12300
S2471       S  0.18086041  0.58056295  0.66797290    -0.05900
C2472       C  0.18576825  0.57877534  0.67886915    -0.09300
C2473       C  0.18289133  0.57060989  0.68327071    -0.25900
S2474       S  0.15970822  0.54370061  0.67500564    -0.03100
C2475       C  0.15488678  0.54539947  0.66405011    -0.16600
C2476       C  0.15783338  0.55352368  0.65960783    -0.14600
H2477       H  0.16730046  0.57023670  0.65623039     0.20800
H2478       H  0.17336456  0.55395389  0.68668392     0.16800
H2479       H  0.18512325  0.56836577  0.69016059     0.19300
H2480       H  0.15565848  0.55572939  0.65268766     0.12700
C2481       C  0.21061397  0.66621138  0.64252505     0.16600
C2482       C  0.20858912  0.65735975  0.64613302    -0.32500
C2483       C  0.21148328  0.65538943  0.65526410     0.20900
C2484       C  0.21630185  0.66187031  0.66059157     0.03100
C2485       C  0.21845726  0.67074578  0.65691342    -0.22200
C2486       C  0.21546316  0.67276994  0.64774864     0.12300
S2487       S  0.20712896  0.67000008  0.63181168    -0.05900
C2488       C  0.21221600  0.68061097  0.63428593    -0.09300
C2489       C  0.21651069  0.68108277  0.64297856    -0.25900
S2490       S  0.21896464  0.65802300  0.67164218    -0.03100
C2491       C  0.21345335  0.64763537  0.66899091    -0.16600
C2492       C  0.20984629  0.64726060  0.66000625    -0.14600
H2493       H  0.20474658  0.65228198  0.64205633     0.20800
H2494       H  0.22215176  0.67588099  0.66105179     0.16800
H2495       H  0.21992799  0.68723124  0.64575430     0.19300
H2496       H  0.20616988  0.64136244  0.65704472     0.12700
C2497       C  0.25810969  0.76804357  0.60436663     0.16600
C2498       C  0.25286328  0.76070983  0.60817253    -0.32500
C2499       C  0.24821974  0.75474258  0.60193597     0.20900
C2500       C  0.24870343  0.75604571  0.59232044     0.03100
C2501       C  0.25404018  0.76335045  0.58849894    -0.22200
C2502       C  0.25875809  0.76929921  0.59475004     0.12300
S2503       S  0.26406032  0.77611088  0.61080235    -0.05900
C2504       C  0.26760059  0.78126389  0.60046120    -0.09300
C2505       C  0.26426627  0.77684419  0.59245371    -0.25900
S2506       S  0.24233247  0.74813344  0.58600050    -0.03100
C2507       C  0.23909185  0.74293678  0.59642493    -0.16600
C2508       C  0.24278609  0.74723033  0.60432263    -0.14600
H2509       H  0.25239174  0.75971965  0.61568602     0.20800
H2510       H  0.25446623  0.76437291  0.58098932     0.16800
H2511       H  0.26566051  0.77911328  0.58535120     0.19300
H2512       H  0.24149830  0.74504266  0.61147160     0.12700
C2513       C  0.30040366  0.85160131  0.65265611     0.16600
C2514       C  0.30365488  0.85897107  0.65821560    -0.32500
C2515       C  0.29812923  0.86187679  0.66573082     0.20900
C2516       C  0.28981413  0.85752726  0.66777583     0.03100
C2517       C  0.28665581  0.84997842  0.66233062    -0.22200
C2518       C  0.29210759  0.84718391  0.65466942     0.12300
S2519       S  0.30568216  0.84774503  0.64271031    -0.05900
C2520       C  0.29660164  0.84010869  0.64113173    -0.09300
C2521       C  0.28992907  0.84047999  0.64811359    -0.25900
S2522       S  0.28385570  0.86260940  0.67680692    -0.03100
C2523       C  0.29261515  0.87074967  0.67772403    -0.16600
C2524       C  0.29980819  0.86938302  0.67144414    -0.14600
H2525       H  0.31004881  0.86253048  0.65653410     0.20800
H2526       H  0.28008420  0.84666552  0.66378657     0.16800
H2527       H  0.28364738  0.83636953  0.64818109     0.19300
H2528       H  0.30582183  0.87383877  0.67082185    -0.08900
C2529       C  0.17105187  0.82816327  0.94868850     0.16600
C2530       C  0.16778511  0.82917830  0.95786754    -0.32500
C2531       C  0.16160838  0.83653698  0.95966103     0.20900
C2532       C  0.15874802  0.84261423  0.95265890     0.03100
C2533       C  0.16198409  0.84157118  0.94345608    -0.22200
C2534       C  0.16819989  0.83422647  0.94166768     0.12300
S2535       S  0.17883386  0.81988365  0.94513873    -0.05900
C2536       C  0.17830658  0.82467838  0.93406980    -0.09300
C2537       C  0.17229997  0.83223173  0.93325944    -0.25900
S2538       S  0.15133254  0.85118698  0.95638423    -0.03100
C2539       C  0.15212956  0.84652893  0.96750371    -0.16600
C2540       C  0.15783381  0.83873099  0.96815801    -0.14600
H2541       H  0.17003727  0.82450264  0.96339663     0.20800
H2542       H  0.15983429  0.84632825  0.93795598     0.16800
H2543       H  0.17111324  0.83621023  0.92691315     0.19300
H2544       H  0.15924350  0.83486512  0.97452646     0.12700
C2545       C  0.15896916  0.96871814  0.82559476     0.16600
C2546       C  0.16476011  0.96451668  0.81889671    -0.32500
C2547       C  0.16895900  0.95596444  0.82125339     0.20900
C2548       C  0.16735695  0.95176478  0.82986905     0.03100
C2549       C  0.16159913  0.95598516  0.83657482    -0.22200
C2550       C  0.15746883  0.96457190  0.83425367     0.12300
S2551       S  0.15339372  0.97913971  0.82413661    -0.05900
C2552       C  0.14907166  0.97802141  0.83537344    -0.09300
C2553       C  0.15178899  0.96986829  0.83990430    -0.25900
S2554       S  0.17286026  0.94130473  0.83132870    -0.03100
C2555       C  0.17746564  0.94256729  0.82023688    -0.16600
C2556       C  0.17482890  0.95075742  0.81570895    -0.14600
H2557       H  0.16596469  0.96779333  0.81215785     0.20800
H2558       H  0.16040731  0.95271863  0.84332068     0.16800
H2559       H  0.14983934  0.96797460  0.84698284     0.19300
H2560       H  0.17693086  0.95270377  0.80868870     0.12700
C2561       C  0.23893217  0.90755652  0.75643993     0.16600
C2562       C  0.24456878  0.90359257  0.74951146    -0.32500
C2563       C  0.24872368  0.90964293  0.74302966     0.20900
C2564       C  0.24738245  0.91924993  0.74341800     0.03100
C2565       C  0.24161139  0.92322722  0.75030652    -0.22200
C2566       C  0.23740799  0.91714260  0.75680700     0.12300
S2567       S  0.23358264  0.90135120  0.76507474    -0.05900
C2568       C  0.22911165  0.91173239  0.76929400    -0.09300
C2569       C  0.23168923  0.91958916  0.76415027    -0.25900
S2570       S  0.25341583  0.92534045  0.73505078    -0.03100
C2571       C  0.25767324  0.91479704  0.73094638    -0.16600
C2572       C  0.25452503  0.90705648  0.73588735    -0.14600
H2573       H  0.24574283  0.89610109  0.74924224     0.20800
H2574       H  0.24052542  0.93072657  0.75064419     0.16800
H2575       H  0.22964462  0.92670066  0.76579035     0.19300
H2576       H  0.25650784  0.89988163  0.73445642     0.12700
C2577       C  0.20513673  0.85759262  0.83720657     0.16600
C2578       C  0.20868991  0.84972544  0.84192358    -0.32500
C2579       C  0.20436746  0.84704769  0.85033547     0.20900
C2580       C  0.19671160  0.85183866  0.85369592     0.03100
C2581       C  0.19305476  0.85951357  0.84889133    -0.22200
C2582       C  0.19751063  0.86233767  0.84067934     0.12300
S2583       S  0.20990740  0.86268127  0.82748377    -0.05900
C2584       C  0.20165190  0.87138098  0.82831076    -0.09300
C2585       C  0.19543528  0.87015792  0.83558344    -0.25900
S2586       S  0.19274423  0.84802346  0.86422198    -0.03100
C2587       C  0.20155278  0.83990957  0.86428849    -0.16600
C2588       C  0.20716882  0.84010452  0.85639410    -0.14600
H2589       H  0.21476832  0.84610820  0.83936889     0.20800
H2590       H  0.18721106  0.86337207  0.85165699     0.16800
H2591       H  0.18989070  0.87493945  0.83733526     0.19300
H2592       H  0.21311294  0.83563213  0.85528033     0.12700
C2593       C  0.25238959  0.75529433  0.91055438     0.16600
C2594       C  0.24673421  0.76231737  0.91441275    -0.32500
C2595       C  0.24275860  0.76885384  0.90822942     0.20900
C2596       C  0.24446132  0.76847773  0.89866791     0.03100
C2597       C  0.25003099  0.76143716  0.89481908    -0.22200
C2598       C  0.25387974  0.75484414  0.90096360     0.12300
S2599       S  0.25786152  0.74665118  0.91677642    -0.05900
C2600       C  0.26200390  0.74228983  0.90630564    -0.09300
C2601       C  0.25931989  0.74739078  0.89848878    -0.25900
S2602       S  0.23918926  0.77707981  0.89233130    -0.03100
C2603       C  0.23446075  0.78119914  0.90262257    -0.16600
C2604       C  0.23694839  0.77612372  0.91054482    -0.14600
H2605       H  0.24545531  0.76264485  0.92188660     0.20800
H2606       H  0.25127346  0.76108376  0.88733823     0.16800
H2607       H  0.26126801  0.74575573  0.89134289     0.19300
H2608       H  0.23467579  0.77768870  0.91760624     0.12700
C2609       C  0.25584546  0.61766148  0.75570151     0.16600
C2610       C  0.24937312  0.62109010  0.74924833    -0.32500
C2611       C  0.24537474  0.61468429  0.74299915     0.20900
C2612       C  0.24761388  0.60524272  0.74321122     0.03100
C2613       C  0.25414594  0.60180953  0.74965781    -0.22200
C2614       C  0.25823336  0.60825317  0.75586555     0.12300
S2615       S  0.26143781  0.62434955  0.76382234    -0.05900
C2616       C  0.26717547  0.61441152  0.76749901    -0.09300
C2617       C  0.26477714  0.60634376  0.76260800    -0.25900
S2618       S  0.24190391  0.59865719  0.73499965    -0.03100
C2619       C  0.23660642  0.60878031  0.73113463    -0.16600
C2620       C  0.23911649  0.61675209  0.73609020    -0.14600
H2621       H  0.24756696  0.62845380  0.74907144     0.20800
H2622       H  0.25598975  0.59445702  0.74980032     0.16800
H2623       H  0.26761275  0.59945019  0.76393747     0.19300
H2624       H  0.23653109  0.62373467  0.73468788     0.12700
C2625       C  0.29882391  0.66187249  0.84148312     0.16600
C2626       C  0.30108462  0.66607379  0.85001011    -0.32500
C2627       C  0.29531717  0.67320710  0.85328199     0.20900
C2628       C  0.28768820  0.67622236  0.84824569     0.03100
C2629       C  0.28545602  0.67205704  0.83958682    -0.22200
C2630       C  0.29117897  0.66474102  0.83636841     0.12300
S2631       S  0.30469773  0.65268814  0.83680615    -0.05900
C2632       C  0.29674783  0.65248480  0.82783800    -0.09300
C2633       C  0.28997011  0.65937858  0.82843562    -0.25900
S2634       S  0.28146637  0.68483278  0.85379056    -0.03100
C2635       C  0.28918196  0.68414193  0.86300865    -0.16600
C2636       C  0.29621569  0.67770292  0.86166705    -0.14600
H2637       H  0.30696924  0.66370126  0.85406103     0.20800
H2638       H  0.27942434  0.67424934  0.83566572     0.16800
H2639       H  0.28431555  0.66021862  0.82353865     0.19300
H2640       H  0.30168091  0.67623237  0.86663352     0.12700
C2641       C  0.81899220  0.96039195  0.17342327     0.16600
C2642       C  0.81905547  0.96905192  0.16876365    -0.32500
C2643       C  0.82596325  0.97055539  0.16200520     0.20900
C2644       C  0.83248604  0.96375071  0.15993635     0.03100
C2645       C  0.83237454  0.95507869  0.16453710    -0.22200
C2646       C  0.82551152  0.95359494  0.17132229     0.12300
S2647       S  0.81137007  0.95722181  0.18203519    -0.05900
C2648       C  0.81706451  0.94663042  0.18283045    -0.09300
C2649       C  0.82443036  0.94570456  0.17666127    -0.25900
S2650       S  0.84043835  0.96703467  0.15170466    -0.03100
C2651       C  0.83493727  0.97772022  0.15101636    -0.16600
C2652       C  0.82730953  0.97856563  0.15688707    -0.14600
H2653       H  0.81401353  0.97441510  0.17040201     0.20800
H2654       H  0.83748245  0.94975673  0.16297758     0.16800
H2655       H  0.82885039  0.93961114  0.17612690     0.19300
H2656       H  0.82303118  0.98475448  0.15751459     0.12700
C2657       C  0.94466834  0.84573885  0.15742885     0.16600
C2658       C  0.93606299  0.84516155  0.16192170    -0.32500
C2659       C  0.93426653  0.83714591  0.16734892     0.20900
C2660       C  0.94070777  0.83000626  0.16823255     0.03100
C2661       C  0.94923700  0.83052716  0.16365090    -0.22200
C2662       C  0.95105028  0.83855112  0.15828898     0.12300
S2663       S  0.94843997  0.85502339  0.15083953    -0.05900
C2664       C  0.95873891  0.84914264  0.14927761    -0.09300
C2665       C  0.95906887  0.84043286  0.15361267    -0.25900
S2666       S  0.93738382  0.82105625  0.17542633    -0.03100
C2667       C  0.92717095  0.82696783  0.17727485    -0.16600
C2668       C  0.92645125  0.83540691  0.17247626    -0.14600
H2669       H  0.93105354  0.85077058  0.16134244     0.20800
H2670       H  0.95431159  0.82499278  0.16436678     0.16800
H2671       H  0.96492338  0.83571811  0.15350953     0.19300
H2672       H  0.92061035  0.84013152  0.17285976     0.12700
C2673       C  0.84699891  0.84853650  0.21132209     0.16600
C2674       C  0.83993129  0.85400301  0.21531594    -0.32500
C2675       C  0.83718418  0.86213114  0.21046376     0.20900
C2676       C  0.84122018  0.86458127  0.20199008     0.03100
C2677       C  0.84810292  0.85905888  0.19795006    -0.22200
C2678       C  0.85092648  0.85107740  0.20283415     0.12300
S2679       S  0.85192488  0.83880247  0.21629290    -0.05900
C2680       C  0.85940252  0.83834848  0.20687033    -0.09300
C2681       C  0.85793926  0.84526156  0.20023233    -0.25900
S2682       S  0.83747910  0.87489046  0.19740109    -0.03100
C2683       C  0.83035707  0.87605441  0.20698628    -0.16600
C2684       C  0.83082569  0.86869109  0.21334430    -0.14600
H2685       H  0.83690778  0.85216093  0.22201195     0.20800
H2686       H  0.85133667  0.86106472  0.19140043     0.16800
H2687       H  0.86196195  0.84618851  0.19390332     0.19300
H2688       H  0.82697464  0.86831410  0.21984151     0.12700
C2689       C  0.74463968  0.90528424  0.25306452     0.16600
C2690       C  0.75233538  0.90185157  0.24819979    -0.32500
C2691       C  0.75841671  0.90839421  0.24426514     0.20900
C2692       C  0.75690755  0.91795142  0.24509409     0.03100
C2693       C  0.74925583  0.92139936  0.25009055    -0.22200
C2694       C  0.74316453  0.91483427  0.25405800     0.12300
S2695       S  0.73635910  0.89843594  0.25807032    -0.05900
C2696       C  0.73081239  0.90850999  0.26164945    -0.09300
C2697       C  0.73525429  0.91674046  0.25905636    -0.25900
S2698       S  0.76497049  0.92469006  0.23948473    -0.03100
C2699       C  0.77048250  0.91451140  0.23610298    -0.16600
C2700       C  0.76620904  0.90638291  0.23919137    -0.14600
H2701       H  0.75348868  0.89439122  0.24744106     0.20800
H2702       H  0.74805679  0.92885786  0.25077615     0.16800
H2703       H  0.73277942  0.92372708  0.26062551     0.19300
H2704       H  0.76858621  0.89934690  0.23768685     0.12700
C2705       C  0.65325276  0.84373819  0.28460918     0.16600
C2706       C  0.66129564  0.84835965  0.28162159    -0.32500
C2707       C  0.66490358  0.85538612  0.28747878     0.20900
C2708       C  0.66074996  0.85759524  0.29595867     0.03100
C2709       C  0.65278474  0.85295979  0.29895120    -0.22200
C2710       C  0.64912372  0.84606613  0.29306311     0.12300
S2711       S  0.64750029  0.83525553  0.27845144    -0.05900
C2712       C  0.63940656  0.83500993  0.28732864    -0.09300
C2713       C  0.64122393  0.84110513  0.29465421    -0.25900
S2714       S  0.66587400  0.86650449  0.30192418    -0.03100
C2715       C  0.67368192  0.86744058  0.29286332    -0.16600
C2716       C  0.67239050  0.86100870  0.28567171    -0.14600
H2717       H  0.66449077  0.84668309  0.27496396     0.20800
H2718       H  0.64946720  0.85478635  0.30551003     0.16800
H2719       H  0.63694850  0.84196093  0.30082178     0.19300
H2720       H  0.67650741  0.86064557  0.27934630     0.12700
C2721       C  0.94350557  0.68623784  0.32920115     0.16600
C2722       C  0.94699776  0.67984309  0.33579428    -0.32500
C2723       C  0.95628130  0.67713578  0.33494989     0.20900
C2724       C  0.96184105  0.68074347  0.32790564     0.03100
C2725       C  0.95838948  0.68724376  0.32140337    -0.22200
C2726       C  0.94908030  0.68985582  0.32217586     0.12300
S2727       S  0.93228667  0.68982589  0.32862311    -0.05900
C2728       C  0.93505757  0.69618189  0.31871957    -0.09300
C2729       C  0.94429623  0.69563943  0.31617944    -0.25900
S2730       S  0.97277247  0.67632462  0.32779310    -0.03100
C2731       C  0.96988732  0.66949869  0.33734696    -0.16600
C2732       C  0.96087542  0.67070820  0.34044136    -0.14600
H2733       H  0.94260459  0.67692876  0.34120168     0.20800
H2734       H  0.96271507  0.68996314  0.31583960     0.16800
H2735       H  0.94728047  0.69896982  0.31007063     0.19300
H2736       H  0.95779951  0.66697399  0.34626310     0.12700
C2737       C  0.89729526  0.76419373  0.24053170     0.16600
C2738       C  0.89405533  0.75688229  0.24613677    -0.32500
C2739       C  0.90060474  0.75111270  0.25044877     0.20900
C2740       C  0.91000529  0.75248701  0.24925158     0.03100
C2741       C  0.91327462  0.75974481  0.24346572    -0.22200
C2742       C  0.90667941  0.76557664  0.23915028     0.12300
S2743       S  0.89035775  0.77218373  0.23517247    -0.05900
C2744       C  0.90015253  0.77751118  0.23091210    -0.09300
C2745       C  0.90837506  0.77320576  0.23352018    -0.25900
S2746       S  0.91673855  0.74488948  0.25558654    -0.03100
C2747       C  0.90673160  0.73983239  0.25979272    -0.16600
C2748       C  0.89869894  0.74387051  0.25638513    -0.14600
H2749       H  0.88672470  0.75584051  0.24723659     0.20800
H2750       H  0.92060551  0.76089982  0.24251246     0.16800
H2751       H  0.91519631  0.77564442  0.23159855     0.19300
H2752       H  0.89176690  0.74179646  0.25831843     0.12700
C2753       C  0.82441148  0.56984388  0.32295284     0.16600
C2754       C  0.82704084  0.56065098  0.32503557    -0.32500
C2755       C  0.83383025  0.55933847  0.33191353     0.20900
C2756       C  0.83780634  0.56679300  0.33663885     0.03100
C2757       C  0.83514592  0.57603300  0.33457385    -0.22200
C2758       C  0.82840464  0.57735814  0.32758544     0.12300
S2759       S  0.81655302  0.57287485  0.31454932    -0.05900
C2760       C  0.81875539  0.58443520  0.31714553    -0.09300
C2761       C  0.82516131  0.58576213  0.32428979    -0.25900
S2762       S  0.84600623  0.56354277  0.34470617    -0.03100
C2763       C  0.84405414  0.55203088  0.34158238    -0.16600
C2764       C  0.83736848  0.55092610  0.33469063    -0.14600
H2765       H  0.82401479  0.55476497  0.32135691     0.20800
H2766       H  0.83827343  0.58192433  0.33815050     0.16800
H2767       H  0.82747857  0.59251296  0.32682191     0.19300
H2768       H  0.83515510  0.54430134  0.33177459     0.12700
C2769       C  0.85547553  0.67420484  0.30011510     0.16600
C2770       C  0.85017649  0.66667359  0.30336911    -0.32500
C2771       C  0.84330313  0.66315046  0.29741326     0.20900
C2772       C  0.84166916  0.66700816  0.28864853     0.03100
C2773       C  0.84694350  0.67458924  0.28541007    -0.22200
C2774       C  0.85390000  0.67805243  0.29133253     0.12300
S2775       S  0.86440406  0.67918800  0.30611871    -0.05900
C2776       C  0.86612088  0.68651522  0.29667297    -0.09300
C2777       C  0.85996869  0.68514991  0.28932893    -0.25900
S2778       S  0.83311882  0.66154337  0.28243741    -0.03100
C2779       C  0.83183815  0.65389796  0.29170535    -0.16600
C2780       C  0.83769236  0.65565208  0.29920518    -0.14600
H2781       H  0.85146209  0.66358585  0.31018286     0.20800
H2782       H  0.84577608  0.67756006  0.27852418     0.16800
H2783       H  0.86004386  0.68898402  0.28278181     0.19300
H2784       H  0.83792971  0.65159698  0.30561451     0.12700
C2785       C  0.60623853  0.75010821  0.24234778     0.16600
C2786       C  0.60988886  0.75785732  0.24702792    -0.32500
C2787       C  0.60375634  0.76353547  0.25202695     0.20900
C2788       C  0.59438275  0.76160391  0.25242706     0.03100
C2789       C  0.59069659  0.75383526  0.24767905    -0.22200
C2790       C  0.59685732  0.74815225  0.24260515     0.12300
S2791       S  0.61265885  0.74234925  0.23608328    -0.05900
C2792       C  0.60262889  0.73633844  0.23369549    -0.09300
C2793       C  0.59471404  0.74024966  0.23755811    -0.25900
S2794       S  0.58818570  0.76943764  0.25898261    -0.03100
C2795       C  0.59835203  0.77539529  0.26105022    -0.16600
C2796       C  0.60606431  0.77139972  0.25693124    -0.14600
H2797       H  0.61721149  0.75939018  0.24679384     0.20800
H2798       H  0.58337983  0.75229005  0.24793303     0.16800
H2799       H  0.58782547  0.73738621  0.23686182     0.19300
H2800       H  0.61303302  0.77408690  0.25746513     0.12700
C2801       C  0.74886930  0.60567485  0.24206694     0.16600
C2802       C  0.75537034  0.60213739  0.24848181    -0.32500
C2803       C  0.76166486  0.60849889  0.25246507     0.20900
C2804       C  0.76152100  0.61791933  0.25008655     0.03100
C2805       C  0.75499535  0.62145245  0.24376679    -0.22200
C2806       C  0.74867492  0.61513449  0.23987034     0.12300
S2807       S  0.74066227  0.59918679  0.23635842    -0.05900
C2808       C  0.73685818  0.60938064  0.23111953    -0.09300
C2809       C  0.74179051  0.61730310  0.23366251    -0.25900
S2810       S  0.76978832  0.62449735  0.25545144    -0.03100
C2811       C  0.77348566  0.61450792  0.26110908    -0.16600
C2812       C  0.76850406  0.60649635  0.25885887    -0.14600
H2813       H  0.75551837  0.59476820  0.25028125     0.20800
H2814       H  0.75484997  0.62882273  0.24196253     0.16800
H2815       H  0.74046334  0.62430181  0.23105663     0.19300
H2816       H  0.76985257  0.59958462  0.26167368     0.12700
C2817       C  0.66419522  0.65576010  0.19606130     0.16600
C2818       C  0.65607118  0.66008933  0.19304479    -0.32500
C2819       C  0.65306608  0.66797386  0.19799037     0.20900
C2820       C  0.65793134  0.67148040  0.20558892     0.03100
C2821       C  0.66612842  0.66715536  0.20860077    -0.22200
C2822       C  0.66911663  0.65918710  0.20366706     0.12300
S2823       S  0.66884160  0.64607798  0.19097106    -0.05900
C2824       C  0.67759187  0.64659048  0.19912906    -0.09300
C2825       C  0.67683719  0.65390414  0.20550050    -0.25900
S2826       S  0.65281838  0.68094619  0.21080846    -0.03100
C2827       C  0.64398637  0.68000287  0.20273397    -0.16600
C2828       C  0.64513651  0.67285282  0.19628212    -0.14600
H2829       H  0.65219648  0.65736259  0.18715009     0.20800
H2830       H  0.66993670  0.66980733  0.21457081     0.16800
H2831       H  0.68168266  0.65532140  0.21110439     0.19300
H2832       H  0.64030588  0.67110663  0.19076178     0.12700
C2833       C  0.94092934  0.18996565  0.83407317     0.16600
C2834       C  0.94476353  0.18342587  0.84033280    -0.32500
C2835       C  0.95428894  0.18400324  0.84211521     0.20900
C2836       C  0.95969035  0.19079529  0.83784133     0.03100
C2837       C  0.95588898  0.19723398  0.83153484    -0.22200
C2838       C  0.94641255  0.19665550  0.82975016     0.12300
S2839       S  0.92950845  0.19071407  0.83118811    -0.05900
C2840       C  0.93220051  0.20008903  0.82403393    -0.09300
C2841       C  0.94147097  0.20242996  0.82394314    -0.25900
S2842       S  0.97099002  0.19060360  0.84102391    -0.03100
C2843       C  0.96853451  0.18122069  0.84820964    -0.16600
C2844       C  0.95935645  0.17841265  0.84806658    -0.14600
H2845       H  0.94050297  0.17819516  0.84372587     0.20800
H2846       H  0.96013259  0.20253226  0.82822218     0.16800
H2847       H  0.94442613  0.20817497  0.81999955     0.19300
H2848       H  0.95653666  0.17269024  0.85214205     0.12700
C2849       C  0.83150560  0.18423750  0.95333663     0.16600
C2850       C  0.82507880  0.19034931  0.94927429    -0.32500
C2851       C  0.82358645  0.18962125  0.93960438     0.20900
C2852       C  0.82824094  0.18305267  0.93421469     0.03100
C2853       C  0.83462310  0.17686542  0.93830256    -0.22200
C2854       C  0.83617284  0.17764104  0.94798822     0.12300
S2855       S  0.83439522  0.18421730  0.96489450    -0.05900
C2856       C  0.84201581  0.17520708  0.96258397    -0.09300
C2857       C  0.84222805  0.17240725  0.95326778    -0.25900
S2858       S  0.82567056  0.18354164  0.92254712    -0.03100
C2859       C  0.81828105  0.19272945  0.92495586    -0.16600
C2860       C  0.81783042  0.19515591  0.93435182    -0.14600
H2861       H  0.82148217  0.19553151  0.95345647     0.20800
H2862       H  0.83830530  0.17176408  0.93410018     0.16800
H2863       H  0.84656041  0.16687126  0.95050491     0.19300
H2864       H  0.81368594  0.20080317  0.93718415     0.12700
C2865       C  0.83884955  0.21132426  0.84549618     0.16600
C2866       C  0.84688183  0.20831775  0.84097692    -0.32500
C2867       C  0.85071048  0.21424252  0.83421137     0.20900
C2868       C  0.84664338  0.22271414  0.83184512     0.03100
C2869       C  0.83849056  0.22568207  0.83629795    -0.22200
C2870       C  0.83475324  0.21982274  0.84325634     0.12300
S2871       S  0.83365708  0.20541540  0.85439931    -0.05900
C2872       C  0.82590488  0.21453109  0.85531501    -0.09300
C2873       C  0.82725178  0.22169377  0.84886191    -0.25900
S2874       S  0.85273939  0.22903557  0.82373517    -0.03100
C2875       C  0.86091577  0.22023176  0.82375244    -0.16600
C2876       C  0.85883364  0.21276789  0.82958397    -0.14600
H2877       H  0.85018089  0.20177287  0.84287659     0.20800
H2878       H  0.83537244  0.23237662  0.83463049     0.16800
H2879       H  0.82318189  0.22804971  0.84849293     0.19300
H2880       H  0.86314894  0.20665480  0.83060328     0.12700
C2881       C  0.94398367  0.34449521  0.68122394     0.16600
C2882       C  0.95272065  0.34865698  0.68071732    -0.32500
C2883       C  0.95467678  0.35424595  0.67288220     0.20900
C2884       C  0.94820863  0.35579198  0.66589117     0.03100
C2885       C  0.93938792  0.35171766  0.66645995    -0.22200
C2886       C  0.93747068  0.34598681  0.67425729     0.12300
S2887       S  0.94051366  0.33703408  0.68990049    -0.05900
C2888       C  0.93014743  0.33580774  0.68410218    -0.09300
C2889       C  0.92948925  0.34105014  0.67589628    -0.25900
S2890       S  0.95222539  0.36246131  0.65674663    -0.03100
C2891       C  0.96277012  0.36298849  0.66236211    -0.16600
C2892       C  0.96296823  0.35838513  0.67093659    -0.14600
H2893       H  0.95786549  0.34739471  0.68608313     0.20800
H2894       H  0.93433109  0.35277346  0.66096604     0.16800
H2895       H  0.92357538  0.34110715  0.67125334     0.19300
H2896       H  0.96895225  0.35785322  0.67545339     0.12700
C2897       C  0.89818419  0.27179583  0.74597742     0.16600
C2898       C  0.89453379  0.26657531  0.75340028    -0.32500
C2899       C  0.90069510  0.26144891  0.75896658     0.20900
C2900       C  0.91011503  0.26146358  0.75726848     0.03100
C2901       C  0.91381489  0.26682192  0.74986928    -0.22200
C2902       C  0.90761390  0.27201215  0.74427794     0.12300
S2903       S  0.89170333  0.27809202  0.73824054    -0.05900
C2904       C  0.90176198  0.28121837  0.73261479    -0.09300
C2905       C  0.90973463  0.27754069  0.73664423    -0.25900
S2906       S  0.91629205  0.25448800  0.76482969    -0.03100
C2907       C  0.90603942  0.25164001  0.77034242    -0.16600
C2908       C  0.89834163  0.25590172  0.76640664    -0.14600
H2909       H  0.88716752  0.26643112  0.75472215     0.20800
H2910       H  0.92116801  0.26688104  0.74848555     0.16800
H2911       H  0.91665195  0.27862750  0.73397465     0.19300
H2912       H  0.89130846  0.25497480  0.76879594     0.12700
C2913       C  0.83231588  0.33406020  0.56000487     0.16600
C2914       C  0.83847702  0.34078873  0.55648610    -0.32500
C2915       C  0.84068257  0.34037165  0.54691500     0.20900
C2916       C  0.83692853  0.33353469  0.54115222     0.03100
C2917       C  0.83072684  0.32687012  0.54464933    -0.22200
C2918       C  0.82850259  0.32730200  0.55419208     0.12300
S2919       S  0.82895370  0.33319765  0.57142837    -0.05900
C2920       C  0.82229419  0.32365410  0.56833983    -0.09300
C2921       C  0.82270404  0.32134386  0.55891303    -0.25900
S2922       S  0.84056020  0.33402670  0.52982582    -0.03100
C2923       C  0.84719998  0.34360080  0.53279539    -0.16600
C2924       C  0.84656745  0.34623041  0.54213876    -0.14600
H2925       H  0.84146115  0.34606794  0.56101833     0.20800
H2926       H  0.82780634  0.32154020  0.54013278     0.16800
H2927       H  0.81911898  0.31550957  0.55571046     0.19300
H2928       H  0.85024467  0.35204243  0.54527468     0.12700
C2929       C  0.83945677  0.29552714  0.64983232     0.16600
C2930       C  0.84493374  0.29233641  0.65734529    -0.32500
C2931       C  0.85173225  0.29845810  0.66086508     0.20900
C2932       C  0.85294647  0.30731710  0.65706140     0.03100
C2933       C  0.84745765  0.31050151  0.64967355    -0.22200
C2934       C  0.84075161  0.30441612  0.64615458     0.12300
S2935       S  0.83100150  0.28922936  0.64425035    -0.05900
C2936       C  0.82931832  0.29870445  0.63690422    -0.09300
C2937       C  0.83498741  0.30627325  0.63881700    -0.25900
S2938       S  0.86167870  0.31362390  0.66188971    -0.03100
C2939       C  0.86384944  0.30428971  0.66920464    -0.16600
C2940       C  0.85796791  0.29668932  0.66795021    -0.14600
H2941       H  0.84402164  0.28537837  0.66022612     0.20800
H2942       H  0.84847113  0.31740439  0.64668757     0.16800
H2943       H  0.83499315  0.31282219  0.63499027     0.19300
H2944       H  0.85838498  0.29017447  0.67181771     0.12700
C2945       C  0.74740473  0.26913089  0.89113099     0.16600
C2946       C  0.75484991  0.26431393  0.88716562    -0.32500
C2947       C  0.76026557  0.25878589  0.89311190     0.20900
C2948       C  0.75846248  0.25815368  0.90263485     0.03100
C2949       C  0.75109035  0.26315584  0.90666188    -0.22200
C2950       C  0.74556455  0.26861417  0.90066207     0.12300
S2951       S  0.73966756  0.27555306  0.88487907    -0.05900
C2952       C  0.73377127  0.27759492  0.89517063    -0.09300
C2953       C  0.73776175  0.27357806  0.90306029    -0.25900
S2954       S  0.76565051  0.25062962  0.90848745    -0.03100
C2955       C  0.77109485  0.24834092  0.89796000    -0.16600
C2956       C  0.76749777  0.25324563  0.89041072    -0.14600
H2957       H  0.75620647  0.26464957  0.87970414     0.20800
H2958       H  0.74958023  0.26261598  0.91407774     0.16800
H2959       H  0.73494187  0.27398585  0.91007912     0.19300
H2960       H  0.76989319  0.25266046  0.88324600     0.12700
C2961       C  0.65624360  0.31739064  0.83334364     0.16600
C2962       C  0.66147107  0.32115794  0.84066219    -0.32500
C2963       C  0.66931710  0.31619301  0.84349905     0.20900
C2964       C  0.67201283  0.30797614  0.83908496     0.03100
C2965       C  0.66690503  0.30432645  0.83158108    -0.22200
C2966       C  0.65889088  0.30916347  0.82890947     0.12300
S2967       S  0.64594347  0.32180187  0.82969392    -0.05900
C2968       C  0.64507011  0.31239514  0.82219045    -0.09300
C2969       C  0.65252746  0.30629735  0.82240199    -0.25900
S2970       S  0.68126198  0.30258033  0.84416149    -0.03100
C2971       C  0.68133788  0.31138632  0.85243452    -0.16600
C2972       C  0.67469464  0.31824054  0.85109174    -0.14600
H2973       H  0.65926693  0.32744139  0.84429073     0.20800
H2974       H  0.66884183  0.29778043  0.82827798     0.16800
H2975       H  0.65306577  0.29989615  0.81836430     0.19300
H2976       H  0.67351976  0.32415611  0.85569043     0.12700
C2977       C  0.74660113  0.25134895  0.60022400     0.16600
C2978       C  0.75398226  0.25609355  0.60441867    -0.32500
C2979       C  0.76060195  0.26012985  0.59851289     0.20900
C2980       C  0.75992824  0.25949265  0.58883877     0.03100
C2981       C  0.75261101  0.25457013  0.58462826    -0.22200
C2982       C  0.74596326  0.25051064  0.59055638     0.12300
S2983       S  0.73767656  0.24642771  0.60622829    -0.05900
C2984       C  0.73301229  0.24304884  0.59563927    -0.09300
C2985       C  0.73819517  0.24564160  0.58786846    -0.25900
S2986       S  0.76844202  0.26537696  0.58295229    -0.03100
C2987       C  0.77296697  0.26865374  0.59365536    -0.16600
C2988       C  0.76809454  0.26527080  0.60131041    -0.14600
H2989       H  0.75445737  0.25675273  0.61196911     0.20800
H2990       H  0.75204110  0.25406426  0.57707526     0.16800
H2991       H  0.73627684  0.24424454  0.58066522     0.19300
H2992       H  0.76977582  0.26671079  0.60856550     0.12700
C2993       C  0.59687502  0.25655559  0.74299346     0.16600
C2994       C  0.59315914  0.26205586  0.75023073    -0.32500
C2995       C  0.59935704  0.26707004  0.75589940     0.20900
C2996       C  0.60881435  0.26661347  0.75441267     0.03100
C2997       C  0.61251051  0.26122314  0.74712382    -0.22200
C2998       C  0.60632889  0.25622942  0.74146932     0.12300
S2999       S  0.59059698  0.24973945  0.73548315    -0.05900
C3000       C  0.60082334  0.24652925  0.73017571    -0.09300
C3001       C  0.60862996  0.25054096  0.73410608    -0.25900
S3002       S  0.61522037  0.27289292  0.76219953    -0.03100
C3003       C  0.60506944  0.27623587  0.76755659    -0.16600
C3004       C  0.59714858  0.27265617  0.76341397    -0.14600
H3005       H  0.58578111  0.26233939  0.75144654     0.20800
H3006       H  0.61989624  0.26086678  0.74596548     0.16800
H3007       H  0.61564142  0.24929385  0.73177536     0.19300
H3008       H  0.59017833  0.27392165  0.76585652     0.12700
C3009       C  0.64412195  0.21834612  0.65202642     0.16600
C3010       C  0.64759470  0.21655908  0.64308570    -0.32500
C3011       C  0.65600270  0.22067877  0.64067350     0.20900
C3012       C  0.66081637  0.22636011  0.64685041     0.03100
C3013       C  0.65727816  0.22823471  0.65584678    -0.22200
C3014       C  0.64879191  0.22408429  0.65828093     0.12300
S3015       S  0.63409219  0.21380395  0.65615038    -0.05900
C3016       C  0.63602630  0.21972934  0.66647265    -0.09300
C3017       C  0.64412398  0.22495271  0.66664404    -0.25900
S3018       S  0.67105456  0.23046423  0.64244141    -0.03100
C3019       C  0.66872107  0.22442846  0.63221812    -0.16600
C3020       C  0.66044461  0.21958354  0.63232378    -0.14600
H3021       H  0.64391418  0.21208530  0.63822033     0.20800
H3022       H  0.66097925  0.23267021  0.66072525     0.16800
H3023       H  0.64646654  0.22910638  0.67253296     0.19300
H3024       H  0.65778760  0.21536547  0.62662734     0.12700
C3025       C  0.55629197  0.67762980  0.18143261     0.16600
C3026       C  0.54710205  0.67504671  0.17982830    -0.32500
C3027       C  0.54539861  0.66826207  0.17293466     0.20900
C3028       C  0.55248909  0.66425643  0.16777868     0.03100
C3029       C  0.56170780  0.66682443  0.16940641    -0.22200
C3030       C  0.56342340  0.67357337  0.17636785     0.12300
S3031       S  0.55978007  0.68564850  0.18957617    -0.05900
C3032       C  0.57100877  0.68346279  0.18622751    -0.09300
C3033       C  0.57189383  0.67689362  0.17909250    -0.25900
S3034       S  0.54886903  0.65622482  0.15964699    -0.03100
C3035       C  0.53769708  0.65823003  0.16332963    -0.16600
C3036       C  0.53693701  0.66481914  0.17044950    -0.14600
H3037       H  0.54151863  0.67815956  0.18381179     0.20800
H3038       H  0.56729385  0.66368344  0.16545117     0.16800
H3039       H  0.57837894  0.67460251  0.17608796     0.19300
H3040       H  0.53051927  0.66707234  0.17362447     0.12700
C3041       C  0.50549004  0.59419912  0.08674659     0.16600
C3042       C  0.50953967  0.59978798  0.09372527    -0.32500
C3043       C  0.50385275  0.60620502  0.09846501     0.20900
C3044       C  0.49453376  0.60700291  0.09637404     0.03100
C3045       C  0.49049794  0.60147513  0.08933124    -0.22200
C3046       C  0.49619807  0.59508369  0.08456002     0.12300
S3047       S  0.51117845  0.58589024  0.08031884    -0.05900
C3048       C  0.50096841  0.58363642  0.07450280    -0.09300
C3049       C  0.49357498  0.58908660  0.07749970    -0.25900
S3050       S  0.48877641  0.61500877  0.10311583    -0.03100
C3051       C  0.49903959  0.61736253  0.10880951    -0.16600
C3052       C  0.50648931  0.61216234  0.10554496    -0.14600
H3053       H  0.51680232  0.59912404  0.09542539     0.20800
H3054       H  0.48322211  0.60209618  0.08767520     0.16800
H3055       H  0.48663076  0.58863647  0.07471096     0.19300
H3056       H  0.51344693  0.61259098  0.10829262     0.12700
C3057       C  0.66916498  0.56330490  0.15734147     0.16600
C3058       C  0.67307142  0.57215685  0.15893112    -0.32500
C3059       C  0.67958253  0.57296735  0.16619956     0.20900
C3060       C  0.68216603  0.56531823  0.17158678     0.03100
C3061       C  0.67830937  0.55648142  0.16996268    -0.22200
C3062       C  0.67174359  0.55569429  0.16277842     0.12300
S3063       S  0.66094510  0.56080162  0.14906042    -0.05900
C3064       C  0.66093803  0.54940247  0.15306660    -0.09300
C3065       C  0.66707616  0.54774506  0.16036478    -0.25900
S3066       S  0.68995106  0.56780284  0.18024317    -0.03100
C3067       C  0.68967407  0.57931936  0.17665394    -0.16600
C3068       C  0.68389736  0.58101110  0.16905098    -0.14600
H3069       H  0.67103428  0.57817003  0.15478375     0.20800
H3070       H  0.68023492  0.55049946  0.17421174     0.16800
H3071       H  0.66809188  0.54106838  0.16381080     0.19300
H3072       H  0.68274522  0.58779555  0.16586770     0.12700
C3073       C  0.67073463  0.46573868  0.15511682     0.16600
C3074       C  0.67568574  0.45729907  0.15563141    -0.32500
C3075       C  0.68220811  0.45633834  0.16287077     0.20900
C3076       C  0.68381207  0.46346728  0.16926328     0.03100
C3077       C  0.67890280  0.47190885  0.16872002    -0.22200
C3078       C  0.67232479  0.47282874  0.16154903     0.12300
S3079       S  0.66241310  0.46832355  0.14696144    -0.05900
C3080       C  0.66104907  0.47906886  0.15231620    -0.09300
C3081       C  0.66679897  0.48044131  0.16000044    -0.25900
S3082       S  0.69182278  0.46081704  0.17767193    -0.03100
C3083       C  0.69294918  0.44991368  0.17260854    -0.16600
C3084       C  0.68745788  0.44856991  0.16472868    -0.14600
H3085       H  0.67444063  0.45169018  0.15067859     0.20800
H3086       H  0.68007581  0.47747907  0.17373604     0.16800
H3087       H  0.66700970  0.48670596  0.16426400     0.19300
H3088       H  0.68715318  0.44218169  0.16065434     0.12700
C3089       C  0.54031629  0.53794791  0.06136485     0.16600
C3090       C  0.53541301  0.54545051  0.06537321    -0.32500
C3091       C  0.52725091  0.54838862  0.06091158     0.20900
C3092       C  0.52411899  0.54403988  0.05282407     0.03100
C3093       C  0.52902486  0.53654378  0.04881963    -0.22200
C3094       C  0.53718161  0.53360137  0.05327586     0.12300
S3095       S  0.55032406  0.53331205  0.06572183    -0.05900
C3096       C  0.55031538  0.52538619  0.05656430    -0.09300
C3097       C  0.54288058  0.52639411  0.05048461    -0.25900
S3098       S  0.51406586  0.54860726  0.04848841    -0.03100
C3099       C  0.51403813  0.55650855  0.05764730    -0.16600
C3100       C  0.52150557  0.55555008  0.06371365    -0.14600
H3101       H  0.53784908  0.54884027  0.07169966     0.20800
H3102       H  0.52657674  0.53313955  0.04250694     0.16800
H3103       H  0.54167726  0.52206042  0.04437367     0.19300
H3104       H  0.52266810  0.55985113  0.06985697     0.12700
C3105       C  0.59049418  0.50691959  0.07967884     0.16600
C3106       C  0.59739626  0.50331411  0.08559162    -0.32500
C3107       C  0.60134505  0.50939094  0.09223116     0.20900
C3108       C  0.59860667  0.51867534  0.09290913     0.03100
C3109       C  0.59163200  0.52225704  0.08707086    -0.22200
C3110       C  0.58763065  0.51615406  0.08048783     0.12300
S3111       S  0.58488294  0.50071711  0.07111379    -0.05900
C3112       C  0.57846721  0.51061636  0.06869948    -0.09300
C3113       C  0.58070603  0.51829229  0.07425977    -0.25900
S3114       S  0.60446695  0.52496394  0.10121493    -0.03100
C3115       C  0.61062563  0.51495262  0.10390032    -0.16600
C3116       C  0.60817171  0.50719866  0.09856373    -0.14600
H3117       H  0.59960909  0.49608591  0.08502903     0.20800
H3118       H  0.58943158  0.52949131  0.08762109     0.16800
H3119       H  0.57743462  0.52510338  0.07376684     0.19300
H3120       H  0.61131538  0.50033993  0.09916663     0.12700
C3121       C  0.56847511  0.47198835  0.02065051     0.16600
C3122       C  0.57124582  0.47609387  0.02917177    -0.32500
C3123       C  0.56700619  0.48455198  0.03188061     0.20900
C3124       C  0.56028192  0.48871387  0.02635243     0.03100
C3125       C  0.55751582  0.48461272  0.01783354    -0.22200
C3126       C  0.56175862  0.47616293  0.01512342     0.12300
S3127       S  0.57279625  0.46177267  0.01610131    -0.05900
C3128       C  0.56546240  0.46307612  0.00663108    -0.09300
C3129       C  0.55999015  0.47108870  0.00709853    -0.25900
S3130       S  0.55594718  0.49892321  0.03088100    -0.03100
C3131       C  0.56329186  0.49765837  0.04034556    -0.16600
C3132       C  0.56878178  0.48965431  0.03989469    -0.14600
H3133       H  0.57649116  0.47283897  0.03349909     0.20800
H3134       H  0.55227272  0.48786916  0.01350420     0.16800
H3135       H  0.55498706  0.47311823  0.00182915     0.19300
H3136       H  0.57379625  0.48765324  0.04516344     0.12700
C3137       C  0.66814443  0.33904507  0.03812703     0.16600
C3138       C  0.67437628  0.33270166  0.04219270    -0.32500
C3139       C  0.67846808  0.33522581  0.05073424     0.20900
C3140       C  0.67638702  0.34367705  0.05505160     0.03100
C3141       C  0.67023278  0.35007245  0.05092594    -0.22200
C3142       C  0.66616175  0.34756102  0.04235913     0.12300
S3143       S  0.66239025  0.33718350  0.02788601    -0.05900
C3144       C  0.65726853  0.34803388  0.02921040    -0.09300
C3145       C  0.65994049  0.35278416  0.03725600    -0.25900
S3146       S  0.68172706  0.34525802  0.06558675    -0.03100
C3147       C  0.68690404  0.33446066  0.06414237    -0.16600
C3148       C  0.68459022  0.32993881  0.05586910    -0.14600
H3149       H  0.67591547  0.32605715  0.03887065     0.20800
H3150       H  0.66862442  0.35667629  0.05429352     0.16800
H3151       H  0.65746575  0.35965362  0.03927791     0.19300
H3152       H  0.68704306  0.32305827  0.05384921     0.12700
C3153       C  0.66163872  0.33165876  0.95154541     0.16600
C3154       C  0.66813114  0.32533306  0.94788888    -0.32500
C3155       C  0.67063446  0.32634674  0.93844596     0.20900
C3156       C  0.66676816  0.33330295  0.93289908     0.03100
C3157       C  0.66028479  0.33962152  0.93655444    -0.22200
C3158       C  0.65784697  0.33866642  0.94601075     0.12300
S3159       S  0.65782899  0.33169660  0.96284238    -0.05900
C3160       C  0.65112454  0.34134003  0.96014423    -0.09300
C3161       C  0.65181508  0.34426349  0.95090498    -0.25900
S3162       S  0.67066810  0.33341132  0.92164583    -0.03100
C3163       C  0.67767139  0.32402180  0.92440195    -0.16600
C3164       C  0.67692315  0.32098573  0.93360941    -0.14600
H3165       H  0.67114413  0.31990699  0.95223247     0.20800
H3166       H  0.65732273  0.34508985  0.93222813     0.16800
H3167       H  0.64816952  0.35019147  0.94794033     0.19300
H3168       H  0.68075190  0.31519375  0.93660514     0.12700
C3169       C  0.60181111  0.41389474  0.99688031     0.16600
C3170       C  0.59741389  0.42200354  0.00025658    -0.32500
C3171       C  0.58999665  0.42565021  0.99504504     0.20900
C3172       C  0.58709050  0.42140900  0.98681642     0.03100
C3173       C  0.59155760  0.41334585  0.98337740    -0.22200
C3174       C  0.59899068  0.40970056  0.98859561     0.12300
S3175       S  0.61070886  0.40823374  0.00237726    -0.05900
C3176       C  0.61074612  0.40012747  0.99340236    -0.09300
C3177       C  0.60414739  0.40184170  0.98651313    -0.25900
S3178       S  0.57782850  0.42681341  0.98165646    -0.03100
C3179       C  0.57785951  0.43492488  0.99065745    -0.16600
C3180       C  0.58476461  0.43340594  0.99726652    -0.14600
H3181       H  0.59962437  0.42527831  0.00672657     0.20800
H3182       H  0.58928996  0.41001813  0.97695513     0.16800
H3183       H  0.60304903  0.39747111  0.98040982     0.19300
H3184       H  0.58586777  0.43770956  0.00341841     0.12700
C3185       C  0.54413288  0.33220914  0.83297215     0.16600
C3186       C  0.54855948  0.32563572  0.82720512    -0.32500
C3187       C  0.55792248  0.32708934  0.82517826     0.20900
C3188       C  0.56267010  0.33470680  0.82880870     0.03100
C3189       C  0.55823440  0.34129454  0.83454963    -0.22200
C3190       C  0.54885415  0.33988164  0.83651905     0.12300
S3191       S  0.53280593  0.33173773  0.83614767    -0.05900
C3192       C  0.53437889  0.34205659  0.84225315    -0.09300
C3193       C  0.54329219  0.34557507  0.84185306    -0.25900
S3194       S  0.57402888  0.33512297  0.82573060    -0.03100
C3195       C  0.57238683  0.32495061  0.81942074    -0.16600
C3196       C  0.56344994  0.32148398  0.81972098    -0.14600
H3197       H  0.54486099  0.31966565  0.82440683     0.20800
H3198       H  0.56193387  0.34726273  0.83735035     0.16800
H3199       H  0.54557040  0.35197451  0.84520484     0.19300
H3200       H  0.56116104  0.31512554  0.81629790     0.12700
C3201       C  0.53084158  0.44467440  0.95270114     0.16600
C3202       C  0.53896046  0.44168112  0.95718407    -0.32500
C3203       C  0.54195326  0.44670444  0.96508408     0.20900
C3204       C  0.53710305  0.45441127  0.96836541     0.03100
C3205       C  0.52897676  0.45743511  0.96384880    -0.22200
C3206       C  0.52594946  0.45237210  0.95595005     0.12300
S3207       S  0.52604847  0.43938904  0.94312686    -0.05900
C3208       C  0.51728335  0.44759790  0.94341807    -0.09300
C3209       C  0.51815558  0.45410033  0.95064190    -0.25900
S3210       S  0.54186543  0.45944956  0.97814656    -0.03100
C3211       C  0.55047157  0.45105509  0.97784918    -0.16600
C3212       C  0.54960404  0.44475721  0.97046336    -0.14600
H3213       H  0.54275139  0.43564326  0.95465610     0.20800
H3214       H  0.52515000  0.46343024  0.96641776     0.16800
H3215       H  0.51332991  0.45974630  0.95197530     0.19300
H3216       H  0.55428811  0.43898720  0.96913153     0.12700
C3217       C  0.50600194  0.41992681  0.90579155     0.16600
C3218       C  0.50958831  0.41288532  0.89995228    -0.32500
C3219       C  0.50347664  0.40834640  0.89379998     0.20900
C3220       C  0.49417762  0.41064619  0.89353321     0.03100
C3221       C  0.49059261  0.41772984  0.89934798    -0.22200
C3222       C  0.49673266  0.42235364  0.90543081     0.12300
S3223       S  0.51229310  0.42622019  0.91373808    -0.05900
C3224       C  0.50238929  0.43235517  0.91652683    -0.09300
C3225       C  0.49462666  0.42952945  0.91153126    -0.25900
S3226       S  0.48790798  0.40420749  0.88565505    -0.03100
C3227       C  0.49793387  0.39839658  0.88259829    -0.16600
C3228       C  0.50567621  0.40136815  0.88753757    -0.14600
H3229       H  0.51684301  0.41103722  0.90018090     0.20800
H3230       H  0.48333984  0.41958067  0.89911430     0.16800
H3231       H  0.48779794  0.43252077  0.91236241     0.19300
H3232       H  0.51256585  0.39855067  0.88665237     0.12700
C3233       C  0.33924101  0.56346670  0.83359931     0.16600
C3234       C  0.33622121  0.57271617  0.83223337    -0.32500
C3235       C  0.32942922  0.57431359  0.82536456     0.20900
C3236       C  0.32579831  0.56705045  0.82007637     0.03100
C3237       C  0.32880727  0.55781240  0.82144668    -0.22200
C3238       C  0.33558929  0.55622143  0.82830848     0.12300
S3239       S  0.34737389  0.55997845  0.84161992    -0.05900
C3240       C  0.34580813  0.54861934  0.83781851    -0.09300
C3241       C  0.33932653  0.54773410  0.83067403    -0.25900
S3242       S  0.31765418  0.57046916  0.81207217    -0.03100
C3243       C  0.31913578  0.58183764  0.81587395    -0.16600
C3244       C  0.32562612  0.58279468  0.82299933    -0.14600
H3245       H  0.33903167  0.57841908  0.83634752     0.20800
H3246       H  0.32598356  0.55210524  0.81734564     0.16800
H3247       H  0.33735149  0.54120973  0.82737500     0.19300
H3248       H  0.32752085  0.58935427  0.82628198     0.12700
C3249       C  0.46996368  0.48703820  0.93628806     0.16600
C3250       C  0.47766058  0.48196800  0.93952178    -0.32500
C3251       C  0.48052866  0.47413543  0.93430509     0.20900
C3252       C  0.47594574  0.47149006  0.92619458     0.03100
C3253       C  0.46827749  0.47660980  0.92291492    -0.22200
C3254       C  0.46537639  0.48442921  0.92816699     0.12300
S3255       S  0.46533604  0.49661132  0.94175003    -0.05900
C3256       C  0.45705453  0.49717334  0.93304706    -0.09300
C3257       C  0.45797145  0.49022793  0.92625092    -0.25900
S3258       S  0.48042681  0.46168517  0.92097348    -0.03100
C3259       C  0.48859705  0.46111443  0.92979623    -0.16600
C3260       C  0.48779558  0.46824789  0.93638961    -0.14600
H3261       H  0.48121979  0.48400380  0.94588093     0.20800
H3262       H  0.46468317  0.47453865  0.91658823     0.16800
H3263       H  0.45344073  0.48942526  0.92026349     0.19300
H3264       H  0.49225988  0.46906182  0.94242751     0.12700
C3265       C  0.41672012  0.51662573  0.90894715     0.16600
C3266       C  0.40921234  0.52042029  0.90399893    -0.32500
C3267       C  0.40533140  0.51503293  0.89677145     0.20900
C3268       C  0.40874816  0.50621853  0.89459888     0.03100
C3269       C  0.41635713  0.50247017  0.89946696    -0.22200
C3270       C  0.42026919  0.50788625  0.90668716     0.12300
S3271       S  0.42214931  0.52196702  0.91812545    -0.05900
C3272       C  0.42939441  0.51238951  0.91895170    -0.09300
C3273       C  0.42759942  0.50543559  0.91236254    -0.25900
S3274       S  0.40280008  0.50064916  0.88586106    -0.03100
C3275       C  0.39570040  0.51034632  0.88502685    -0.16600
C3276       C  0.39791609  0.51747805  0.89125038    -0.14600
H3277       H  0.40645506  0.52725068  0.90577245     0.20800
H3278       H  0.41904405  0.49559298  0.89776729     0.16800
H3279       H  0.43134604  0.49888464  0.91184935     0.19300
H3280       H  0.39418743  0.52403214  0.89184050     0.12700
C3281       C  0.43667174  0.55043519  0.96741605     0.16600
C3282       C  0.43421635  0.54625038  0.95882798    -0.32500
C3283       C  0.43873530  0.53788719  0.95626023     0.20900
C3284       C  0.44542017  0.53391246  0.96197449     0.03100
C3285       C  0.44786728  0.53808970  0.97052903    -0.22200
C3286       C  0.44334491  0.54641039  0.97310394     0.12300
S3287       S  0.43197893  0.56052209  0.97192043    -0.05900
C3288       C  0.43908007  0.55929113  0.98158715    -0.09300
C3289       C  0.44476170  0.55144192  0.98119081    -0.25900
S3290       S  0.45013589  0.52380689  0.95765287    -0.03100
C3291       C  0.44302899  0.52484907  0.94800059    -0.16600
C3292       C  0.43731039  0.53270118  0.94823624    -0.14600
H3293       H  0.42899597  0.54935637  0.95436237     0.20800
H3294       H  0.45307168  0.53497020  0.97500566     0.16800
H3295       H  0.44965855  0.54946606  0.98658304     0.19300
H3296       H  0.43239405  0.53453781  0.94281413     0.12700
C3297       C  0.46511637  0.56527656  0.02161901     0.16600
C3298       C  0.47296646  0.56178602  0.02625150    -0.32500
C3299       C  0.47602460  0.56654034  0.03430563     0.20900
C3300       C  0.47141329  0.57436925  0.03765750     0.03100
C3301       C  0.46352913  0.57782694  0.03305727    -0.22200
C3302       C  0.46052414  0.57312631  0.02494922     0.12300
S3303       S  0.46052114  0.56072644  0.01154605    -0.05900
C3304       C  0.45234791  0.56954152  0.01172936    -0.09300
C3305       C  0.45318165  0.57558580  0.01933326    -0.25900
S3306       S  0.47631584  0.57922308  0.04743583    -0.03100
C3307       C  0.48473389  0.57065547  0.04700668    -0.16600
C3308       C  0.48365941  0.56437486  0.03963161    -0.14600
H3309       H  0.47660921  0.55570126  0.02361618     0.20800
H3310       H  0.45996339  0.58399038  0.03561698     0.16800
H3311       H  0.44874882  0.58156902  0.02060477     0.19300
H3312       H  0.48826932  0.55857213  0.03818354     0.12700
C3313       C  0.33357723  0.68434970  0.95874344     0.16600
C3314       C  0.32707220  0.69081218  0.95530308    -0.32500
C3315       C  0.32247061  0.68858681  0.94692221     0.20900
C3316       C  0.32429553  0.68028637  0.94221642     0.03100
C3317       C  0.33073154  0.67380148  0.94569466    -0.22200
C3318       C  0.33533040  0.67602570  0.95405477     0.12300
S3319       S  0.33996012  0.68579145  0.96869774    -0.05900
C3320       C  0.34502128  0.67502673  0.96658761    -0.09300
C3321       C  0.34187047  0.67063479  0.95852130    -0.25900
S3322       S  0.31829583  0.67897895  0.93202782    -0.03100
C3323       C  0.31322629  0.68974433  0.93403792    -0.16600
C3324       C  0.31605407  0.69403240  0.94229791    -0.14600
H3325       H  0.32571484  0.69731846  0.95896115     0.20800
H3326       H  0.33214984  0.66733270  0.94199297     0.16800
H3327       H  0.34421963  0.66386795  0.95604933     0.19300
H3328       H  0.31373115  0.70084418  0.94467126     0.12700
C3329       C  0.41616662  0.59953250  0.00296256     0.16600
C3330       C  0.41108253  0.60682019  0.00713085    -0.32500
C3331       C  0.40399515  0.61099169  0.00184109     0.20900
C3332       C  0.40211785  0.60808749  0.99276550     0.03100
C3333       C  0.40717736  0.60076691  0.98860962    -0.22200
C3334       C  0.41421700  0.59653809  0.99393068     0.12300
S3335       S  0.42498403  0.59355919  0.00824394    -0.05900
C3336       C  0.42602945  0.58682145  0.99824038    -0.09300
C3337       C  0.41983701  0.58923631  0.99118218    -0.25900
S3338       S  0.39339150  0.61418602  0.98744946    -0.03100
C3339       C  0.39216794  0.62069966  0.99757707    -0.16600
C3340       C  0.39827693  0.61817390  0.00466581    -0.14600
H3341       H  0.41257923  0.60912756  0.01420222     0.20800
H3342       H  0.40568380  0.59846344  0.98153666     0.16800
H3343       H  0.41944162  0.58581845  0.98441541     0.19300
H3344       H  0.39862605  0.62150143  0.01147769     0.12700
C3345       C  0.32428341  0.45538845  0.82247853     0.16600
C3346       C  0.32563478  0.46452895  0.82576985    -0.32500
C3347       C  0.33359418  0.46630417  0.83108609     0.20900
C3348       C  0.33989654  0.45929202  0.83317590     0.03100
C3349       C  0.33852173  0.45011830  0.82991505    -0.22200
C3350       C  0.33059553  0.44836383  0.82449677     0.12300
S3351       S  0.31522456  0.45190160  0.81563488    -0.05900
C3352       C  0.31997808  0.44083774  0.81543398    -0.09300
C3353       C  0.32814855  0.43999080  0.82049465    -0.25900
S3354       S  0.34920120  0.46300745  0.83960006    -0.03100
C3355       C  0.34461017  0.47415212  0.83929397    -0.16600
C3356       C  0.33625633  0.47481352  0.83456627    -0.14600
H3357       H  0.32076576  0.47005720  0.82413321     0.20800
H3358       H  0.34346576  0.44462376  0.83142520     0.16800
H3359       H  0.33217901  0.43363096  0.82112037     0.19300
H3360       H  0.33235721  0.48122015  0.83361432     0.12700
C3361       C  0.43710792  0.33695345  0.82054958     0.16600
C3362       C  0.44091013  0.34356036  0.82673393    -0.32500
C3363       C  0.45002881  0.34212475  0.82974611     0.20900
C3364       C  0.45504155  0.33436623  0.82683261     0.03100
C3365       C  0.45124726  0.32777515  0.82066229    -0.22200
C3366       C  0.44220759  0.32929527  0.81752763     0.12300
S3367       S  0.42624771  0.33750491  0.81596668    -0.05900
C3368       C  0.42866308  0.32740329  0.80977712    -0.09300
C3369       C  0.43742055  0.32380973  0.81130340    -0.25900
S3370       S  0.46595954  0.33383819  0.83118712    -0.03100
C3371       C  0.46388128  0.34427457  0.83692143    -0.16600
C3372       C  0.45508134  0.34787700  0.83554012    -0.14600
H3373       H  0.43697099  0.34960043  0.82900935     0.20800
H3374       H  0.45521604  0.32178064  0.81831699     0.16800
H3375       H  0.44013153  0.31751946  0.80806634     0.19300
H3376       H  0.45253882  0.35434817  0.83854970     0.12700
C3377       C  0.34762518  0.34582159  0.78176403     0.16600
C3378       C  0.33997439  0.35125842  0.77912026    -0.32500
C3379       C  0.33669178  0.35786736  0.78562141     0.20900
C3380       C  0.34081680  0.35895548  0.79433707     0.03100
C3381       C  0.34832644  0.35346458  0.79700153    -0.22200
C3382       C  0.35162288  0.34694753  0.79052355     0.12300
S3383       S  0.35308251  0.33773844  0.77483715    -0.05900
C3384       C  0.36081608  0.33600314  0.78387490    -0.09300
C3385       C  0.35909949  0.34132570  0.79178810    -0.25900
S3386       S  0.33627902  0.36762308  0.80106785    -0.03100
C3387       C  0.32868350  0.36987362  0.79208811    -0.16600
C3388       C  0.32960956  0.36410314  0.78431537    -0.14600
H3389       H  0.33684983  0.35051192  0.77225862     0.20800
H3390       H  0.35160439  0.35438282  0.80377053     0.16800
H3391       H  0.36320535  0.34127426  0.79812990     0.19300
H3392       H  0.32556185  0.36465621  0.77795248     0.12700
C3393       C  0.39441739  0.25425534  0.73478613     0.16600
C3394       C  0.39095351  0.26213718  0.73943253    -0.32500
C3395       C  0.39726117  0.26785184  0.74417572     0.20900
C3396       C  0.40661546  0.26579265  0.74441260     0.03100
C3397       C  0.41010949  0.25789756  0.73969757    -0.22200
C3398       C  0.40378463  0.25221131  0.73483277     0.12300
S3399       S  0.38781093  0.24651583  0.72866997    -0.05900
C3400       C  0.39775210  0.24045129  0.72596413    -0.09300
C3401       C  0.40576228  0.24429071  0.72971114    -0.25900
S3402       S  0.41303496  0.27361495  0.75077255    -0.03100
C3403       C  0.40299623  0.27975746  0.75298021    -0.16600
C3404       C  0.39515924  0.27583922  0.74901160    -0.14600
H3405       H  0.38364472  0.26376211  0.73933404     0.20800
H3406       H  0.41741616  0.25627599  0.73979629     0.16800
H3407       H  0.41262889  0.24142533  0.72879070     0.19300
H3408       H  0.38822959  0.27860933  0.74969520     0.12700
C3409       C  0.34738839  0.17054180  0.68956020     0.16600
C3410       C  0.34248199  0.16283699  0.68612874    -0.32500
C3411       C  0.33555553  0.15907039  0.69182651     0.20900
C3412       C  0.33349718  0.16285583  0.70053125     0.03100
C3413       C  0.33837408  0.17064797  0.70395163    -0.22200
C3414       C  0.34540036  0.17437295  0.69826781     0.12300
S3415       S  0.35637937  0.17567799  0.68387558    -0.05900
C3416       C  0.35762395  0.18306566  0.69333883    -0.09300
C3417       C  0.35123127  0.18165073  0.70046155    -0.25900
S3418       S  0.32494125  0.15705435  0.70640386    -0.03100
C3419       C  0.32420948  0.14943321  0.69703785    -0.16600
C3420       C  0.33027035  0.15139923  0.68978582    -0.14600
H3421       H  0.34411912  0.15979091  0.67937370     0.20800
H3422       H  0.33687102  0.17356658  0.71079268     0.16800
H3423       H  0.35106741  0.18548568  0.70700950     0.19300
H3424       H  0.33086083  0.14739671  0.68336680     0.12700
C3425       C  0.06267477  0.34471385  0.67562603     0.16600
C3426       C  0.05900379  0.35131770  0.66935611    -0.32500
C3427       C  0.04936900  0.35179701  0.66849505     0.20900
C3428       C  0.04367736  0.34598629  0.67372283     0.03100
C3429       C  0.04734705  0.33937445  0.67998204    -0.22200
C3430       C  0.05698050  0.33885206  0.68079187     0.12300
S3431       S  0.07414899  0.34305736  0.67761021    -0.05900
C3432       C  0.07130757  0.33430452  0.68544721    -0.09300
C3433       C  0.06189200  0.33283648  0.68644803    -0.25900
S3434       S  0.03220376  0.34771578  0.67183122    -0.03100
C3435       C  0.03503230  0.35635350  0.66385482    -0.16600
C3436       C  0.04444967  0.35774903  0.66276458    -0.14600
H3437       H  0.06346966  0.35587204  0.66531819     0.20800
H3438       H  0.04288166  0.33483350  0.68403634     0.16800
H3439       H  0.05880649  0.32768486  0.69105390     0.19300
H3440       H  0.04752281  0.36290118  0.65815048     0.12700
C3441       C  0.16288321  0.46116365  0.66669657     0.16600
C3442       C  0.16734665  0.45246220  0.66734095    -0.32500
C3443       C  0.17349092  0.45107781  0.67483756     0.20900
C3444       C  0.17522061  0.45805887  0.68135881     0.03100
C3445       C  0.17076128  0.46676683  0.68070963    -0.22200
C3446       C  0.16453486  0.46811359  0.67326960     0.12300
S3447       S  0.15512490  0.46423649  0.65817169    -0.05900
C3448       C  0.15403758  0.47500387  0.66354241    -0.09300
C3449       C  0.15946173  0.47603562  0.67152313    -0.25900
S3450       S  0.18276282  0.45486926  0.69004527    -0.03100
C3451       C  0.18344249  0.44393710  0.68494303    -0.16600
C3452       C  0.17819775  0.44299120  0.67684109    -0.14600
H3453       H  0.16601716  0.44697231  0.66227691     0.20800
H3454       H  0.17201137  0.47221986  0.68583438     0.16800
H3455       H  0.15977107  0.48228079  0.67581424     0.19300
H3456       H  0.17768345  0.43664807  0.67271302     0.12700
C3457       C  0.24427597  0.41560796  0.74630919     0.16600
C3458       C  0.25155175  0.41962289  0.75141134    -0.32500
C3459       C  0.25731217  0.41358556  0.75652085     0.20900
C3460       C  0.25589004  0.40397563  0.75652069     0.03100
C3461       C  0.24855048  0.39997190  0.75151796    -0.22200
C3462       C  0.24279359  0.40601267  0.74641525     0.12300
S3463       S  0.23671662  0.42169842  0.73943590    -0.05900
C3464       C  0.23145744  0.41122044  0.73667913    -0.09300
C3465       C  0.23541782  0.40345005  0.74094669    -0.25900
S3466       S  0.26383639  0.39780515  0.76281099    -0.03100
C3467       C  0.26911400  0.40828031  0.76556535    -0.16600
C3468       C  0.26485879  0.41611843  0.76178091    -0.14600
H3469       H  0.25273077  0.42711284  0.75131655     0.20800
H3470       H  0.24744839  0.39246785  0.75150875     0.16800
H3471       H  0.23313328  0.39629226  0.74000131     0.19300
H3472       H  0.26726790  0.42324529  0.76265160     0.12700
C3473       C  0.15583419  0.34709253  0.70759154     0.16600
C3474       C  0.16402389  0.35150054  0.71047420    -0.32500
C3475       C  0.16688042  0.35947029  0.70547135     0.20900
C3476       C  0.16188234  0.36278946  0.69786703     0.03100
C3477       C  0.15378497  0.35833948  0.69493658    -0.22200
C3478       C  0.15086544  0.35049244  0.70001076     0.12300
S3479       S  0.15084143  0.33766083  0.71298831    -0.05900
C3480       C  0.14192117  0.33843453  0.70500396    -0.09300
C3481       C  0.14293323  0.34555437  0.69847532    -0.25900
S3482       S  0.16620895  0.37271245  0.69292685    -0.03100
C3483       C  0.17483573  0.37252251  0.70124445    -0.16600
C3484       C  0.17437177  0.36502627  0.70743206    -0.14600
H3485       H  0.16787474  0.34896729  0.71647149     0.20800
H3486       H  0.14980774  0.36101400  0.68908444     0.16800
H3487       H  0.13804276  0.34719244  0.69297308     0.19300
H3488       H  0.17910795  0.36382127  0.71318186     0.12700
C3489       C  0.16205275  0.05446487  0.82208242     0.16600
C3490       C  0.16829897  0.05756878  0.81523591    -0.32500
C3491       C  0.17086597  0.06703552  0.81538850     0.20900
C3492       C  0.16733972  0.07312920  0.82206656     0.03100
C3493       C  0.16116403  0.06999978  0.82898002    -0.22200
C3494       C  0.15860412  0.06052171  0.82883658     0.12300
S3495       S  0.15788374  0.04334433  0.82284157    -0.05900
C3496       C  0.15139799  0.04681868  0.83238949    -0.09300
C3497       C  0.15253181  0.05615444  0.83484122    -0.25900
S3498       S  0.17109713  0.08438415  0.82092261    -0.03100
C3499       C  0.17759056  0.08086270  0.81139747    -0.16600
C3500       C  0.17679130  0.07141723  0.80926298    -0.14600
H3501       H  0.17097400  0.05282364  0.80996564     0.20800
H3502       H  0.15841098  0.07476754  0.83418698     0.16800
H3503       H  0.14897477  0.05960314  0.84056009     0.19300
H3504       H  0.18026488  0.06796063  0.80349592     0.12700
C3505       C  0.24422426  0.10066123  0.74902821     0.16600
C3506       C  0.25070060  0.09686625  0.74270845    -0.32500
C3507       C  0.25666030  0.10313032  0.73805145     0.20900
C3508       C  0.25620980  0.11269489  0.73970401     0.03100
C3509       C  0.24976931  0.11645719  0.74595886    -0.22200
C3510       C  0.24380450  0.11024303  0.75052075     0.12300
S3511       S  0.23622880  0.09442244  0.75536074    -0.05900
C3512       C  0.23224648  0.10489448  0.75990500    -0.09300
C3513       C  0.23700980  0.11268948  0.75669894    -0.25900
S3514       S  0.26400153  0.11917681  0.73357466    -0.03100
C3515       C  0.26798355  0.10894444  0.72859684    -0.16600
C3516       C  0.26341078  0.10092199  0.73160669    -0.14600
H3517       H  0.25105205  0.08939366  0.74144984     0.20800
H3518       H  0.24939632  0.12393666  0.74719282     0.16800
H3519       H  0.23557816  0.11984986  0.75873572     0.19300
H3520       H  0.26499394  0.09387695  0.72929464     0.12700
C3521       C  0.06385305  0.18009269  0.82395246     0.16600
C3522       C  0.05977427  0.17403069  0.83050726    -0.32500
C3523       C  0.05084164  0.17621179  0.83365900     0.20900
C3524       C  0.04621752  0.18408902  0.83042365     0.03100
C3525       C  0.05026617  0.19010493  0.82384056    -0.22200
C3526       C  0.05917296  0.18791960  0.82068333     0.12300
S3527       S  0.07466037  0.17877441  0.81936186    -0.05900
C3528       C  0.07284273  0.18885389  0.81292284    -0.09300
C3529       C  0.06427317  0.19295646  0.81433414    -0.25900
S3530       S  0.03555270  0.18566742  0.83519094    -0.03100
C3531       C  0.03726145  0.17558763  0.84164173    -0.16600
C3532       C  0.04570915  0.17125725  0.84008098    -0.14600
H3533       H  0.06341935  0.16791498  0.83306749     0.20800
H3534       H  0.04664257  0.19625237  0.82132274     0.16800
H3535       H  0.06191360  0.19932203  0.81096744     0.19300
H3536       H  0.04801444  0.16490960  0.84352000     0.12700
C3537       C  0.09461430  0.25212203  0.74974875     0.16600
C3538       C  0.09067639  0.25984593  0.74508570    -0.32500
C3539       C  0.09667942  0.26602634  0.74039742     0.20900
C3540       C  0.10615307  0.26457500  0.74042516     0.03100
C3541       C  0.11005147  0.25682653  0.74495559    -0.22200
C3542       C  0.10407742  0.25065320  0.74957403     0.12300
S3543       S  0.08866746  0.24391597  0.75610950    -0.05900
C3544       C  0.09905747  0.23842170  0.75842575    -0.09300
C3545       C  0.10664557  0.24280900  0.75444951    -0.25900
S3546       S  0.11234619  0.27295641  0.73472304    -0.03100
C3547       C  0.10209476  0.27851873  0.73211429    -0.16600
C3548       C  0.09428410  0.27401090  0.73553997    -0.14600
H3549       H  0.08328778  0.26102771  0.74517655     0.20800
H3550       H  0.11745152  0.25570063  0.74495091     0.16800
H3551       H  0.11372863  0.24049397  0.75521659     0.19300
H3552       H  0.08727587  0.27652231  0.73468138     0.12700
C3553       C  0.15461701  0.17167837  0.79394779     0.16600
C3554       C  0.16026131  0.16498094  0.79822434    -0.32500
C3555       C  0.16711566  0.16078219  0.79274697     0.20900
C3556       C  0.16849905  0.16329107  0.78346270     0.03100
C3557       C  0.16293784  0.17016717  0.77920599    -0.22200
C3558       C  0.15589267  0.17423312  0.78465226     0.12300
S3559       S  0.14532610  0.17670714  0.79921278    -0.05900
C3560       C  0.14294667  0.18227263  0.78877600    -0.09300
C3561       C  0.14924310  0.18045275  0.78165432    -0.25900
S3562       S  0.17689146  0.15688101  0.77794108    -0.03100
C3563       C  0.17834786  0.15066720  0.78821938    -0.16600
C3564       C  0.17273999  0.15360294  0.79551123    -0.14600
H3565       H  0.15910673  0.16284840  0.80541829     0.20800
H3566       H  0.16383404  0.17200248  0.77189580     0.16800
H3567       H  0.14869328  0.18310604  0.77456362     0.19300
H3568       H  0.17257841  0.15047309  0.80242497     0.12700
C3569       C  0.67523014  0.16931922  0.54387744     0.16600
C3570       C  0.68218044  0.17492307  0.54783053    -0.32500
C3571       C  0.67951118  0.18167325  0.55445137     0.20900
C3572       C  0.67033011  0.18271536  0.55703935     0.03100
C3573       C  0.66339469  0.17712411  0.55309123    -0.22200
C3574       C  0.66605584  0.17041000  0.54645969     0.12300
S3575       S  0.67699375  0.16099997  0.53549245    -0.05900
C3576       C  0.66523440  0.15900720  0.53539468    -0.09300
C3577       C  0.66028733  0.16446714  0.54167072    -0.25900
S3578       S  0.66846817  0.19107632  0.56532135    -0.03100
C3579       C  0.68018516  0.19325848  0.56535174    -0.16600
C3580       C  0.68522142  0.18778016  0.55915286    -0.14600
H3581       H  0.68934175  0.17409140  0.54579304     0.20800
H3582       H  0.65622660  0.17798569  0.55509531     0.16800
H3583       H  0.65284887  0.16434800  0.54245628     0.19300
H3584       H  0.69265115  0.18806501  0.55832238     0.12700
C3585       C  0.67728201  0.17661994  0.44179346     0.16600
C3586       C  0.67065909  0.17014805  0.44484838    -0.32500
C3587       C  0.67105335  0.16724615  0.45421719     0.20900
C3588       C  0.67775833  0.17065514  0.46026679     0.03100
C3589       C  0.68433013  0.17721711  0.45723438    -0.22200
C3590       C  0.68394770  0.18010739  0.44784219     0.12300
S3591       S  0.67811431  0.18068134  0.43062431    -0.05900
C3592       C  0.68758031  0.18717589  0.43404958    -0.09300
C3593       C  0.68987486  0.18623149  0.44344864    -0.25900
S3594       S  0.67725462  0.16605156  0.47127104    -0.03100
C3595       C  0.66786323  0.15950196  0.46772506    -0.16600
C3596       C  0.66530196  0.16088531  0.45847003    -0.14600
H3597       H  0.66548954  0.16741220  0.44009308     0.20800
H3598       H  0.68957617  0.17985635  0.46195643     0.16800
H3599       H  0.69565130  0.18966076  0.44682973     0.19300
H3600       H  0.65963348  0.15734821  0.45500905     0.12700
C3601       C  0.58730914  0.09608991  0.49100999     0.16600
C3602       C  0.59420427  0.10196579  0.48737095    -0.32500
C3603       C  0.59926750  0.10744998  0.49372116     0.20900
C3604       C  0.59755492  0.10708145  0.50327678     0.03100
C3605       C  0.59059396  0.10127247  0.50691029    -0.22200
C3606       C  0.58549547  0.09581890  0.50055367     0.12300
S3607       S  0.58061847  0.08869527  0.48449443    -0.05900
C3608       C  0.57519377  0.08527206  0.49470415    -0.09300
C3609       C  0.57848486  0.08968524  0.50271194    -0.25900
S3610       S  0.60460709  0.11410379  0.50982351    -0.03100
C3611       C  0.60991677  0.11764015  0.49958375    -0.16600
C3612       C  0.60632005  0.11351521  0.49155312    -0.14600
H3613       H  0.59560978  0.10219710  0.47991594     0.20800
H3614       H  0.58924546  0.10097939  0.51437354     0.16800
H3615       H  0.57600634  0.08834356  0.50974918     0.19300
H3616       H  0.60877510  0.11480015  0.48450076     0.12700
C3617       C  0.52870782  0.07725173  0.53474913     0.16600
C3618       C  0.53642839  0.08051401  0.52974745    -0.32500
C3619       C  0.53951889  0.07516793  0.52208485     0.20900
C3620       C  0.53512484  0.06692410  0.51954033     0.03100
C3621       C  0.52743473  0.06364089  0.52456574    -0.22200
C3622       C  0.52431820  0.06900912  0.53219682     0.12300
S3623       S  0.52380488  0.08278619  0.54415606    -0.05900
C3624       C  0.51569391  0.07393788  0.54466324    -0.09300
C3625       C  0.51685385  0.06707206  0.53784485    -0.25900
S3626       S  0.53979727  0.06155719  0.50993065    -0.03100
C3627       C  0.54779419  0.07049932  0.50928679    -0.16600
C3628       C  0.54681400  0.07724213  0.51625313    -0.14600
H3629       H  0.53983618  0.08697635  0.53170295     0.20800
H3630       H  0.52397823  0.05722047  0.52255949     0.16800
H3631       H  0.51244830  0.06099729  0.53703201     0.19300
H3632       H  0.55112667  0.08339953  0.51694467     0.12700
C3633       C  0.45661623  0.17334608  0.67057712     0.16600
C3634       C  0.45217072  0.17947987  0.67678025    -0.32500
C3635       C  0.44281406  0.18140804  0.67520335     0.20900
C3636       C  0.43806093  0.17735038  0.66780655     0.03100
C3637       C  0.44252960  0.17122019  0.66155723    -0.22200
C3638       C  0.45193695  0.16933170  0.66310582     0.12300
S3639       S  0.46792520  0.17020622  0.67136855    -0.05900
C3640       C  0.46646745  0.16342224  0.66146850    -0.09300
C3641       C  0.45757208  0.16361951  0.65781221    -0.25900
S3642       S  0.42668173  0.18047554  0.66725130    -0.03100
C3643       C  0.42837279  0.18737888  0.67704937    -0.16600
C3644       C  0.43732192  0.18719593  0.68049649    -0.14600
H3645       H  0.45585737  0.18262086  0.68259023     0.20800
H3646       H  0.43883892  0.16806620  0.65575834     0.16800
H3647       H  0.45535247  0.15982267  0.65164043     0.19300
H3648       H  0.43967192  0.19097966  0.68662626     0.12700
C3649       C  0.55196217  0.17240541  0.66549967     0.16600
C3650       C  0.56008573  0.17769138  0.66559500    -0.32500
C3651       C  0.56230489  0.18245912  0.67387284     0.20900
C3652       C  0.55672104  0.18202349  0.68175404     0.03100
C3653       C  0.54858930  0.17667177  0.68168211    -0.22200
C3654       C  0.54634685  0.17190978  0.67335793     0.12300
S3655       S  0.54797046  0.16635554  0.65601577    -0.05900
C3656       C  0.53854732  0.16316282  0.66263414    -0.09300
C3657       C  0.53863062  0.16658255  0.67176020    -0.25900
S3658       S  0.56064675  0.18854119  0.69101959    -0.03100
C3659       C  0.56992466  0.19178672  0.68417266    -0.16600
C3660       C  0.56986943  0.18799883  0.67522624    -0.14600
H3661       H  0.56445477  0.17813769  0.65944846     0.20800
H3662       H  0.54416353  0.17631639  0.68779164     0.16800
H3663       H  0.53326814  0.16538158  0.67690938     0.19300
H3664       H  0.57504887  0.18929826  0.66991062     0.12700
C3665       C  0.49710618  0.09740925  0.58577095     0.16600
C3666       C  0.49363595  0.10234049  0.59351175    -0.32500
C3667       C  0.49922725  0.10930763  0.59749207     0.20900
C3668       C  0.50794831  0.11124651  0.59398663     0.03100
C3669       C  0.51141049  0.10634585  0.58617630    -0.22200
C3670       C  0.50576774  0.09940333  0.58213938     0.12300
S3671       S  0.49137714  0.08864913  0.58006347    -0.05900
C3672       C  0.50068767  0.08764056  0.57258934    -0.09300
C3673       C  0.50785133  0.09384228  0.57453179    -0.25900
S3674       S  0.51369371  0.11983136  0.60002514    -0.03100
C3675       C  0.50417965  0.12089931  0.60726084    -0.16600
C3676       C  0.49701368  0.11484130  0.60503868    -0.14600
H3677       H  0.48685661  0.10079872  0.59632683     0.20800
H3678       H  0.51820514  0.10785931  0.58338687     0.16800
H3679       H  0.51426760  0.09420763  0.57064559     0.19300
H3680       H  0.49054357  0.11440596  0.60882034     0.12700
C3681       C  0.46085323  0.04187645  0.56322235     0.16600
C3682       C  0.46532809  0.05022471  0.56581374    -0.32500
C3683       C  0.47365042  0.05247736  0.56124899     0.20900
C3684       C  0.47731291  0.04671111  0.55436622     0.03100
C3685       C  0.47282110  0.03839658  0.55175255    -0.22200
C3686       C  0.46453847  0.03611897  0.55634543     0.12300
S3687       S  0.45082018  0.03774351  0.56805372    -0.05900
C3688       C  0.45158942  0.02813573  0.56073241    -0.09300
C3689       C  0.45925476  0.02826262  0.55486893    -0.25900
S3690       S  0.48751541  0.05060816  0.54974171    -0.03100
C3691       C  0.48693188  0.06010971  0.55719754    -0.16600
C3692       C  0.47913413  0.06017184  0.56290508    -0.14600
H3693       H  0.46249328  0.05472209  0.57121148     0.20800
H3694       H  0.47569901  0.03385583  0.54641492     0.16800
H3695       H  0.46094069  0.02283230  0.54984671     0.19300
H3696       H  0.47758297  0.06553334  0.56804442     0.12700
C3697       C  0.32843589  0.05112326  0.66414445     0.16600
C3698       C  0.32183861  0.05505480  0.67016046    -0.32500
C3699       C  0.32143805  0.06483759  0.67073709     0.20900
C3700       C  0.32741409  0.07044053  0.66561139     0.03100
C3701       C  0.33411226  0.06649894  0.65969378    -0.22200
C3702       C  0.33445906  0.05670505  0.65904722     0.12300
S3703       S  0.32960106  0.03945706  0.66210140    -0.05900
C3704       C  0.33828547  0.04205541  0.65423605    -0.09300
C3705       C  0.34021574  0.05152621  0.65338866    -0.25900
S3706       S  0.32566738  0.08214617  0.66708480    -0.03100
C3707       C  0.31679160  0.07949568  0.67471022    -0.16600
C3708       C  0.31533520  0.06998762  0.67600278    -0.14600
H3709       H  0.31710933  0.05067668  0.67408580     0.20800
H3710       H  0.33873806  0.07088042  0.65564922     0.16800
H3711       H  0.34533738  0.05447075  0.64870891     0.19300
H3712       H  0.31008523  0.06699504  0.68050118     0.12700
C3713       C  0.33468813  0.95698878  0.66429465     0.16600
C3714       C  0.33196011  0.94802235  0.66724855    -0.32500
C3715       C  0.32492916  0.94742735  0.67403182     0.20900
C3716       C  0.32085882  0.95538066  0.67778235     0.03100
C3717       C  0.32362117  0.96432311  0.67487958    -0.22200
C3718       C  0.33055556  0.96491177  0.66803218     0.12300
S3719       S  0.34282861  0.95930880  0.65586576    -0.05900
C3720       C  0.34048700  0.97106784  0.65729495    -0.09300
C3721       C  0.33385447  0.97296451  0.66407663    -0.25900
S3722       S  0.31230009  0.95317695  0.68574469    -0.03100
C3723       C  0.31415493  0.94137997  0.68399579    -0.16600
C3724       C  0.32112863  0.93937769  0.67758744    -0.14600
H3725       H  0.33507096  0.94178628  0.66428842     0.20800
H3726       H  0.32039130  0.97055677  0.67771444     0.16800
H3727       H  0.33144230  0.97989247  0.66596545     0.19300
H3728       H  0.32324108  0.93240640  0.67550592     0.12700
C3729       C  0.40191175  0.00324410  0.59631105     0.16600
C3730       C  0.40750896  0.00000400  0.58892849    -0.32500
C3731       C  0.41364654  0.00640460  0.58475479     0.20900
C3732       C  0.41425374  0.01558074  0.58788200     0.03100
C3733       C  0.40862391  0.01882722  0.59520879    -0.22200
C3734       C  0.40241914  0.01247067  0.59929771     0.12300
S3735       S  0.39398487  0.99664203  0.60228502    -0.05900
C3736       C  0.39119136  0.00646329  0.60876493    -0.09300
C3737       C  0.39627358  0.01436697  0.60639271    -0.25900
S3738       S  0.42224814  0.02220556  0.58207654    -0.03100
C3739       C  0.42477059  0.01257244  0.57522965    -0.16600
C3740       C  0.41961884  0.00465001  0.57744461    -0.14600
H3741       H  0.40707728  0.99282086  0.58652483     0.20800
H3742       H  0.40904307  0.02601504  0.59760192     0.16800
H3743       H  0.39552494  0.02116215  0.60968080     0.19300
H3744       H  0.42027738  0.99793852  0.57396433     0.12700
C3745       C  0.55275767  0.03347731  0.45987780     0.16600
C3746       C  0.54992726  0.03825030  0.46799517    -0.32500
C3747       C  0.55527573  0.04589581  0.47098428     0.20900
C3748       C  0.56306808  0.04869365  0.46607977     0.03100
C3749       C  0.56588082  0.04394124  0.45795124    -0.22200
C3750       C  0.56055697  0.03627590  0.45498674     0.12300
S3751       S  0.54734257  0.02390704  0.45521672    -0.05900
C3752       C  0.55568735  0.02363478  0.44658064    -0.09300
C3753       C  0.56225851  0.03068050  0.44734523    -0.25900
S3754       S  0.56865819  0.05807782  0.47087990    -0.03100
C3755       C  0.56043826  0.05824958  0.47963949    -0.16600
C3756       C  0.55373109  0.05134668  0.47877287    -0.14600
H3757       H  0.54385979  0.03605661  0.47185211     0.20800
H3758       H  0.57199064  0.04608842  0.45413631     0.16800
H3759       H  0.56804931  0.03159760  0.44262714     0.19300
H3760       H  0.54804359  0.05034258  0.48360061     0.12700
C3761       C  0.66521365  0.05075285  0.32854721     0.16600
C3762       C  0.67138741  0.05506528  0.32233975    -0.32500
C3763       C  0.67567875  0.06335002  0.32527156     0.20900
C3764       C  0.67386558  0.06721064  0.33400145     0.03100
C3765       C  0.66766771  0.06288220  0.34024098    -0.22200
C3766       C  0.66337548  0.05455087  0.33730173     0.12300
S3767       S  0.65954962  0.04056755  0.32627931    -0.05900
C3768       C  0.65460601  0.04130239  0.33725713    -0.09300
C3769       C  0.65722574  0.04916850  0.34234632    -0.25900
S3770       S  0.67969447  0.07739420  0.33612549    -0.03100
C3771       C  0.68463756  0.07642170  0.32513654    -0.16600
C3772       C  0.68187670  0.06855750  0.32018063    -0.14600
H3773       H  0.67281167  0.05206174  0.31551727     0.20800
H3774       H  0.66626457  0.06587010  0.34707371     0.16800
H3775       H  0.65493910  0.05074725  0.34939933     0.19300
H3776       H  0.68415162  0.06681109  0.31316340     0.12700
C3777       C  0.67032057  0.95171259  0.31509747     0.16600
C3778       C  0.66580762  0.96032908  0.31593800    -0.32500
C3779       C  0.66045183  0.96183337  0.32397023     0.20900
C3780       C  0.65959159  0.95510623  0.33091927     0.03100
C3781       C  0.66408684  0.94642605  0.33005858    -0.22200
C3782       C  0.66943848  0.94490010  0.32197091     0.12300
S3783       S  0.67712378  0.94858742  0.30584703    -0.05900
C3784       C  0.67872487  0.93790016  0.31118891    -0.09300
C3785       C  0.67423960  0.93692172  0.31974369    -0.25900
S3786       S  0.65283428  0.95851126  0.34018616    -0.03100
C3787       C  0.65122628  0.96910822  0.33459547    -0.16600
C3788       C  0.65566391  0.96980934  0.32600949    -0.14600
H3789       H  0.66645344  0.96564941  0.31056318     0.20800
H3790       H  0.66344583  0.94110957  0.33543510     0.16800
H3791       H  0.67444662  0.93070250  0.32408518     0.19300
H3792       H  0.65548791  0.97587684  0.32146322     0.12700
C3793       C  0.59073739  0.00171062  0.39475306     0.16600
C3794       C  0.58356853  0.99817702  0.40035774    -0.32500
C3795       C  0.57944315  0.00429053  0.40684553     0.20900
C3796       C  0.58234212  0.01350366  0.40773638     0.03100
C3797       C  0.58942728  0.01706694  0.40204720    -0.22200
C3798       C  0.59353935  0.01096235  0.39554572     0.12300
S3799       S  0.59681215  0.99536986  0.38666158    -0.05900
C3800       C  0.60316851  0.00530570  0.38424094    -0.09300
C3801       C  0.60061864  0.01308267  0.38949446    -0.25900
S3802       S  0.57666781  0.01969974  0.41623226    -0.03100
C3803       C  0.57023265  0.00980732  0.41856888    -0.16600
C3804       C  0.57245122  0.00214845  0.41298995    -0.14600
H3805       H  0.58135738  0.99095575  0.39974566     0.20800
H3806       H  0.59169412  0.02426457  0.40271804     0.16800
H3807       H  0.60385355  0.01990181  0.38902460     0.19300
H3808       H  0.56920066  0.99533390  0.41348244     0.12700
C3809       C  0.55229633  0.84604912  0.33127461     0.16600
C3810       C  0.56137044  0.84386894  0.32860853    -0.32500
C3811       C  0.56263709  0.83645398  0.32225772     0.20900
C3812       C  0.55523317  0.83138485  0.31876324     0.03100
C3813       C  0.54618328  0.83355179  0.32143301    -0.22200
C3814       C  0.54491687  0.84100119  0.32770951     0.12300
S3815       S  0.54919371  0.85482577  0.33884472    -0.05900
C3816       C  0.53783092  0.85167181  0.33711218    -0.09300
C3817       C  0.53664176  0.84419916  0.33099757    -0.25900
S3818       S  0.55819307  0.82280624  0.31097395    -0.03100
C3819       C  0.56954183  0.82615716  0.31231866    -0.16600
C3820       C  0.57087048  0.83345802  0.31861199    -0.14600
H3821       H  0.56717777  0.84782345  0.33129499     0.20800
H3822       H  0.54036756  0.82966233  0.31866592     0.16800
H3823       H  0.53006215  0.84117087  0.32905938     0.19300
H3824       H  0.57748015  0.83656420  0.32030826     0.12700
C3825       C  0.51872633  0.97467381  0.43989649     0.16600
C3826       C  0.52294117  0.98312328  0.44256793    -0.32500
C3827       C  0.53083439  0.98596820  0.43760017     0.20900
C3828       C  0.53433571  0.98065660  0.43027469     0.03100
C3829       C  0.53010808  0.97223356  0.42759160    -0.22200
C3830       C  0.52224965  0.96936838  0.43257784     0.12300
S3831       S  0.50917993  0.96992867  0.44509642    -0.05900
C3832       C  0.50994833  0.96066351  0.43734863    -0.09300
C3833       C  0.51724192  0.96134041  0.43107024    -0.25900
S3834       S  0.54396402  0.98526778  0.42513842    -0.03100
C3835       C  0.54332839  0.99447482  0.43294495    -0.16600
C3836       C  0.53596952  0.99391095  0.43917523    -0.14600
H3837       H  0.52021520  0.98727125  0.44829389     0.20800
H3838       H  0.53285279  0.96806979  0.42188634     0.16800
H3839       H  0.51882749  0.95621327  0.42570704     0.19300
H3840       H  0.53445237  0.99903290  0.44456361     0.12700
C3841       C  0.49428097  0.91920142  0.41260672     0.16600
C3842       C  0.49087521  0.91200016  0.40688725    -0.32500
C3843       C  0.49670202  0.90846889  0.39986953     0.20900
C3844       C  0.50556799  0.91191113  0.39862118     0.03100
C3845       C  0.50894723  0.91921593  0.40427870    -0.22200
C3846       C  0.50308166  0.92279254  0.41128098     0.12300
S3847       S  0.48829159  0.92427639  0.42157464    -0.05900
C3848       C  0.49765427  0.93147380  0.42352375    -0.09300
C3849       C  0.50504663  0.92989318  0.41750132    -0.25900
S3850       S  0.51163524  0.90639708  0.38992139    -0.03100
C3851       C  0.50208936  0.89943410  0.38789116    -0.16600
C3852       C  0.49464268  0.90138902  0.39369869    -0.14600
H3853       H  0.48398482  0.90922840  0.40790089     0.20800
H3854       H  0.51585552  0.92195151  0.40330052     0.16800
H3855       H  0.51150932  0.93370530  0.41768322     0.19300
H3856       H  0.48810755  0.89770927  0.39355030     0.12700
C3857       C  0.32839971  0.84310142  0.56056590     0.16600
C3858       C  0.33466751  0.84952069  0.55662234    -0.32500
C3859       C  0.33498604  0.85020978  0.54679648     0.20900
C3860       C  0.32937958  0.84464607  0.54121486     0.03100
C3861       C  0.32327088  0.83812410  0.54514462    -0.22200
C3862       C  0.32285869  0.83752558  0.55493485     0.12300
S3863       S  0.32646209  0.84167265  0.57228272    -0.05900
C3864       C  0.31806097  0.83350003  0.56957816    -0.09300
C3865       C  0.31696791  0.83195809  0.56004718    -0.25900
S3866       S  0.33023467  0.84687577  0.52954076    -0.03100
C3867       C  0.33820765  0.85548003  0.53208496    -0.16600
C3868       C  0.34018580  0.85640211  0.54157255    -0.14600
H3869       H  0.33890616  0.85396310  0.56102116     0.20800
H3870       H  0.31882439  0.83389039  0.54075019     0.16800
H3871       H  0.31195283  0.82723099  0.55699900     0.19300
H3872       H  0.34485915  0.86154800  0.54450164     0.12700
C3873       C  0.43358568  0.97309064  0.52807195     0.16600
C3874       C  0.43038695  0.97797411  0.53597113    -0.32500
C3875       C  0.43540496  0.98585140  0.53891385     0.20900
C3876       C  0.44327813  0.98874123  0.53420142     0.03100
C3877       C  0.44649525  0.98384063  0.52629483    -0.22200
C3878       C  0.44145476  0.97595971  0.52333733     0.12300
S3879       S  0.42839519  0.96342721  0.52339337    -0.05900
C3880       C  0.43687663  0.96320139  0.51490118    -0.09300
C3881       C  0.44338714  0.97030848  0.51576130    -0.25900
S3882       S  0.44830651  0.99853784  0.53884586    -0.03100
C3883       C  0.43971142  0.99876060  0.54724392    -0.16600
C3884       C  0.43333361  0.99154698  0.54639824    -0.14600
H3885       H  0.42422323  0.97574568  0.53964728     0.20800
H3886       H  0.45263062  0.98609787  0.52258824     0.16800
H3887       H  0.44919341  0.97131314  0.51108181     0.19300
H3888       H  0.42744287  0.99055612  0.55097120     0.12700
C3889       C  0.46337958  0.95287286  0.47609953     0.16600
C3890       C  0.47126254  0.95584841  0.47123562    -0.32500
C3891       C  0.47422654  0.95043226  0.46360012     0.20900
C3892       C  0.46954899  0.94240288  0.46089506     0.03100
C3893       C  0.46162970  0.93943316  0.46574840    -0.22200
C3894       C  0.45866825  0.94485744  0.47340930     0.12300
S3895       S  0.45880721  0.95841786  0.48564035    -0.05900
C3896       C  0.45042584  0.94985687  0.48607796    -0.09300
C3897       C  0.45120046  0.94310176  0.47909431    -0.25900
S3898       S  0.47431993  0.93681583  0.45144936    -0.03100
C3899       C  0.48269868  0.94541066  0.45112901    -0.16600
C3900       C  0.48175918  0.95219046  0.45804033    -0.14600
H3901       H  0.47495324  0.96210152  0.47333939     0.20800
H3902       H  0.45796171  0.93315861  0.46366850     0.16800
H3903       H  0.44660939  0.93717030  0.47827748     0.19300
H3904       H  0.48634281  0.95811436  0.45895271     0.12700
C3905       C  0.41009437  0.92534578  0.50369609     0.16600
C3906       C  0.40272096  0.91998682  0.50711899    -0.32500
C3907       C  0.39869502  0.91343583  0.50104012     0.20900
C3908       C  0.40180497  0.91231124  0.49191523     0.03100
C3909       C  0.40926282  0.91760751  0.48851548    -0.22200
C3910       C  0.41334556  0.92412108  0.49463217     0.12300
S3911       S  0.41574924  0.93377848  0.50993548    -0.05900
C3912       C  0.42268366  0.93564433  0.50028741    -0.09300
C3913       C  0.42062764  0.92997106  0.49265213    -0.25900
S3914       S  0.39573721  0.90420679  0.48557999    -0.03100
C3915       C  0.38903006  0.90222143  0.49538155    -0.16600
C3916       C  0.39143437  0.90762255  0.50308912    -0.14600
H3917       H  0.40019809  0.92091744  0.51420768     0.20800
H3918       H  0.41173909  0.91672819  0.48140423     0.16800
H3919       H  0.42418382  0.93020096  0.48597551     0.19300
H3920       H  0.38795232  0.90743722  0.50980486     0.12700
C3921       C  0.43760198  0.83555833  0.33085887     0.16600
C3922       C  0.44161935  0.84165783  0.33746360    -0.32500
C3923       C  0.45128926  0.84262775  0.33736249     0.20900
C3924       C  0.45663416  0.83766180  0.33100073     0.03100
C3925       C  0.45264133  0.83155882  0.32447565    -0.22200
C3926       C  0.44302418  0.83064863  0.32452566     0.12300
S3927       S  0.42603523  0.83352981  0.32962132    -0.05900
C3928       C  0.42855282  0.82601153  0.32045838    -0.09300
C3929       C  0.43790124  0.82516860  0.31856612    -0.25900
S3930       S  0.46813265  0.83983873  0.33172002    -0.03100
C3931       C  0.46587865  0.84764217  0.34067330    -0.16600
C3932       C  0.45657853  0.84838356  0.34300104    -0.14600
H3933       H  0.43739241  0.84554307  0.34237766     0.20800
H3934       H  0.45686149  0.82775535  0.31948870     0.16800
H3935       H  0.44081696  0.82083043  0.31308541     0.19300
H3936       H  0.45383448  0.85296399  0.34837449     0.12700
C3937       C  0.32417744  0.84766533  0.43204083     0.16600
C3938       C  0.33097685  0.85334350  0.43613560    -0.32500
C3939       C  0.32982883  0.85583873  0.44557016     0.20900
C3940       C  0.32217269  0.85290163  0.45062217     0.03100
C3941       C  0.31536013  0.84727186  0.44651890    -0.22200
C3942       C  0.31658129  0.84465570  0.43714308     0.12300
S3943       S  0.32445557  0.84365995  0.42080453    -0.05900
C3944       C  0.31430115  0.83773824  0.42302344    -0.09300
C3945       C  0.31088663  0.83892728  0.43201545    -0.25900
S3946       S  0.32212088  0.85639075  0.46201063    -0.03100
C3947       C  0.33260169  0.86179019  0.46005900    -0.16600
C3948       C  0.33585401  0.86098809  0.45094837    -0.14600
H3949       H  0.33696946  0.85558465  0.43218368     0.20800
H3950       H  0.30945032  0.84489228  0.45051890     0.16800
H3951       H  0.30461548  0.83576047  0.43466992     0.19300
H3952       H  0.34234785  0.86380284  0.44845487     0.12700
C3953       C  0.34239667  0.80614607  0.32859915     0.16600
C3954       C  0.33425251  0.80335232  0.33318515    -0.32500
C3955       C  0.33079356  0.80922690  0.34029068     0.20900
C3956       C  0.33513043  0.81759762  0.34251881     0.03100
C3957       C  0.34312227  0.82045837  0.33783346    -0.22200
C3958       C  0.34670003  0.81449193  0.33095214     0.12300
S3959       S  0.34824357  0.79971068  0.32036930    -0.05900
C3960       C  0.35664018  0.80829118  0.32031310    -0.09300
C3961       C  0.35480676  0.81576969  0.32622290    -0.25900
S3962       S  0.33039576  0.82343251  0.35173810    -0.03100
C3963       C  0.32253975  0.81443821  0.35283078    -0.16600
C3964       C  0.32346332  0.80740908  0.34615364    -0.14600
H3965       H  0.33097113  0.79673684  0.33154790     0.20800
H3966       H  0.34662330  0.82688480  0.33974489     0.16800
H3967       H  0.35928539  0.82175677  0.32721931     0.19300
H3968       H  0.31931426  0.80110781  0.34588893     0.12700
C3969       C  0.05293938  0.67238220  0.33454345     0.16600
C3970       C  0.06153218  0.67687380  0.33369451    -0.32500
C3971       C  0.06290909  0.68274675  0.32589077     0.20900
C3972       C  0.05604771  0.68411639  0.31925390     0.03100
C3973       C  0.04748295  0.67963527  0.32010364    -0.22200
C3974       C  0.04612512  0.67374728  0.32786233     0.12300
S3975       S  0.04976525  0.66503068  0.34349736    -0.05900
C3976       C  0.03914461  0.66378347  0.33814671    -0.09300
C3977       C  0.03825921  0.66883122  0.32985957    -0.25900
S3978       S  0.05906986  0.69146518  0.31029238    -0.03100
C3979       C  0.06974941  0.69270797  0.31547720    -0.16600
C3980       C  0.07078012  0.68766522  0.32376773    -0.14600
H3981       H  0.06690470  0.67583710  0.33887510     0.20800
H3982       H  0.04210576  0.68067931  0.31492837     0.16800
H3983       H  0.03213415  0.66903252  0.32551896     0.19300
H3984       H  0.07696964  0.68754163  0.32802114     0.12700
C3985       C  0.17138401  0.69685796  0.44153440     0.16600
C3986       C  0.16753572  0.69588797  0.45047929    -0.32500
C3987       C  0.16178522  0.68816810  0.45211773     0.20900
C3988       C  0.15989531  0.68165173  0.44518251     0.03100
C3989       C  0.16369140  0.68266993  0.43615092    -0.22200
C3990       C  0.16947940  0.69043410  0.43450563     0.12300
S3991       S  0.17867076  0.70567695  0.43830641    -0.05900
C3992       C  0.17917843  0.70077430  0.42729011    -0.09300
C3993       C  0.17391113  0.69267733  0.42626938    -0.25900
S3994       S  0.15290701  0.67264458  0.44883489    -0.03100
C3995       C  0.15256371  0.67776013  0.45981046    -0.16600
C3996       C  0.15759353  0.68601826  0.46043738    -0.14600
H3997       H  0.16902551  0.70090851  0.45596915     0.20800
H3998       H  0.16226021  0.67761129  0.43068313     0.16800
H3999       H  0.17338706  0.68862016  0.41987804     0.19300
H4000       H  0.15829787  0.69023452  0.46670126     0.12700
C4001       C  0.24098270  0.76424728  0.40271523     0.16600
C4002       C  0.24791310  0.77006297  0.40647941    -0.32500
C4003       C  0.25370500  0.77484305  0.40014345     0.20900
C4004       C  0.25262131  0.77381660  0.39053687     0.03100
C4005       C  0.24568037  0.76812354  0.38681058    -0.22200
C4006       C  0.23991377  0.76340231  0.39309746     0.12300
S4007       S  0.23330222  0.75764161  0.40905314    -0.05900
C4008       C  0.22858408  0.75384195  0.39859200    -0.09300
C4009       C  0.23284226  0.75752122  0.39070847    -0.25900
S4010       S  0.26041436  0.77982741  0.38394935    -0.03100
C4011       C  0.26527417  0.78389782  0.39418685    -0.16600
C4012       C  0.26095113  0.78072457  0.40230155    -0.14600
H4013       H  0.24879238  0.77077368  0.41398505     0.20800
H4014       H  0.24485231  0.76734843  0.37930237     0.16800
H4015       H  0.23094661  0.75591643  0.38354475     0.19300
H4016       H  0.26309454  0.78246627  0.40936198     0.12700
C4017       C  0.15909272  0.71579045  0.34917891     0.16600
C4018       C  0.15101098  0.71244435  0.34503413    -0.32500
C4019       C  0.14756002  0.71732356  0.33730210     0.20900
C4020       C  0.15194186  0.72520069  0.33377313     0.03100
C4021       C  0.16004381  0.72862856  0.33800072    -0.22200
C4022       C  0.16350974  0.72372533  0.34580838     0.12300
S4023       S  0.16427258  0.71070021  0.35856130    -0.05900
C4024       C  0.17253064  0.71935994  0.35811588    -0.09300
C4025       C  0.17126610  0.72585491  0.35096581    -0.25900
S4026       S  0.14657139  0.72994787  0.32417834    -0.03100
C4027       C  0.13833327  0.72125395  0.32507585    -0.16600
C4028       C  0.13978485  0.71505833  0.33239647    -0.14600
H4029       H  0.14755985  0.70627080  0.34771965     0.20800
H4030       H  0.16348978  0.73480340  0.33532123     0.16800
H4031       H  0.17573130  0.73178788  0.34963281     0.19300
H4032       H  0.13541447  0.70913434  0.33405110     0.12700
C4033       C  0.16436078  0.84612706  0.05545977     0.16600
C4034       C  0.16781505  0.84478995  0.06457301    -0.32500
C4035       C  0.17452567  0.83776682  0.06588322     0.20900
C4036       C  0.17770977  0.83239805  0.05845405     0.03100
C4037       C  0.17430230  0.83376394  0.04938116    -0.22200
C4038       C  0.16755981  0.84069396  0.04809441     0.12300
S4039       S  0.15599866  0.85405329  0.05230749    -0.05900
C4040       C  0.15680401  0.84990347  0.04097058    -0.09300
C4041       C  0.16329465  0.84282577  0.03982477    -0.25900
S4042       S  0.18569039  0.82411634  0.06145168    -0.03100
C4043       C  0.18471493  0.82781172  0.07290010    -0.16600
C4044       C  0.17854094  0.83517130  0.07420978    -0.14600
H4045       H  0.16530446  0.84894334  0.07039393     0.20800
H4046       H  0.17671713  0.82951790  0.04358216     0.16800
H4047       H  0.16480959  0.83929469  0.03329108     0.19300
H4048       H  0.17696264  0.83837522  0.08089924     0.12700
C4049       C  0.03901691  0.83426524  0.16018358     0.16600
C4050       C  0.04287533  0.82765328  0.16633505    -0.32500
C4051       C  0.05240547  0.82814214  0.16805641     0.20900
C4052       C  0.05784175  0.83492567  0.16382609     0.03100
C4053       C  0.05396668  0.84158768  0.15772179    -0.22200
C4054       C  0.04442674  0.84110017  0.15599872     0.12300
S4055       S  0.02764634  0.83472712  0.15711848    -0.05900
C4056       C  0.03011720  0.84429492  0.15014275    -0.09300
C4057       C  0.03935540  0.84690631  0.15023984    -0.25900
S4058       S  0.06929059  0.83416183  0.16659321    -0.03100
C4059       C  0.06677165  0.82458285  0.17353749    -0.16600
C4060       C  0.05747104  0.82222152  0.17368011    -0.14600
H4061       H  0.03863674  0.82231460  0.16958659     0.20800
H4062       H  0.05821789  0.84687633  0.15440771     0.16800
H4063       H  0.04221623  0.85270436  0.14630400     0.19300
H4064       H  0.05458363  0.81637737  0.17752658     0.12700
C4065       C  0.09131011  0.76042894  0.23626044     0.16600
C4066       C  0.08769306  0.75461286  0.24334708    -0.32500
C4067       C  0.09397732  0.75030187  0.24954607     0.20900
C4068       C  0.10340593  0.75178105  0.24871246     0.03100
C4069       C  0.10700256  0.75748716  0.24161030    -0.22200
C4070       C  0.10075599  0.76173704  0.23542338     0.12300
S4071       S  0.08495746  0.76645759  0.22807822    -0.05900
C4072       C  0.09517175  0.77064137  0.22342576    -0.09300
C4073       C  0.10300116  0.76751974  0.22810066    -0.25900
S4074       S  0.10991116  0.74630211  0.25702788    -0.03100
C4075       C  0.09987464  0.74185587  0.26176586    -0.16600
C4076       C  0.09189862  0.74451561  0.25700487    -0.14600
H4077       H  0.08032147  0.75354488  0.24403307     0.20800
H4078       H  0.11437188  0.75861702  0.24097061     0.16800
H4079       H  0.11001458  0.76942342  0.22629503     0.19300
H4080       H  0.08496417  0.74251810  0.25901430     0.12700
C4081       C  0.16599276  0.80102873  0.15434896     0.16600
C4082       C  0.16007634  0.79695452  0.16101251    -0.32500
C4083       C  0.15213366  0.80200997  0.16361094     0.20900
C4084       C  0.15026099  0.81075581  0.15982117     0.03100
C4085       C  0.15620342  0.81485059  0.15327143    -0.22200
C4086       C  0.16404215  0.80976660  0.15059694     0.12300
S4087       S  0.17570310  0.79589539  0.14980124    -0.05900
C4088       C  0.17703375  0.80559509  0.14270034    -0.09300
C4089       C  0.17034299  0.81243115  0.14397812    -0.25900
S4090       S  0.14015344  0.81563325  0.16348916    -0.03100
C4091       C  0.13829267  0.80577189  0.17018997    -0.16600
C4092       C  0.14528984  0.79911926  0.16963634    -0.14600
H4093       H  0.16148809  0.79007557  0.16387909     0.20800
H4094       H  0.15466646  0.82162423  0.15022096     0.16800
H4095       H  0.16994464  0.81894516  0.14011411     0.19300
H4096       H  0.14526497  0.79244110  0.17323479     0.12700
C4097       C  0.33837023  0.68602471  0.04148487     0.16600
C4098       C  0.33217226  0.69269167  0.04504689    -0.32500
C4099       C  0.32892943  0.69140624  0.05421538     0.20900
C4100       C  0.33168204  0.68376450  0.05954116     0.03100
C4101       C  0.33773936  0.67700644  0.05591073    -0.22200
C4102       C  0.34106445  0.67834411  0.04678305     0.12300
S4103       S  0.34346239  0.68663271  0.03075200    -0.05900
C4104       C  0.34932438  0.67642564  0.03338591    -0.09300
C4105       C  0.34731471  0.67275976  0.04215018    -0.25900
S4106       S  0.32750824  0.68376129  0.07069836    -0.03100
C4107       C  0.32199631  0.69418321  0.06821652    -0.16600
C4108       C  0.32327033  0.69737851  0.05912754    -0.14600
H4109       H  0.33014901  0.69873443  0.04093384     0.20800
H4110       H  0.33995167  0.67109434  0.06011144     0.16800
H4111       H  0.35035174  0.66645159  0.04503423     0.19300
H4112       H  0.32053881  0.70389292  0.05638833     0.12700
C4113       C  0.24934105  0.76822012  0.10515944     0.16600
C4114       C  0.25724786  0.76374950  0.10859060    -0.32500
C4115       C  0.26228745  0.75814151  0.10237600     0.20900
C4116       C  0.25962306  0.75701866  0.09311123     0.03100
C4117       C  0.25174466  0.76162852  0.08961286    -0.22200
C4118       C  0.24666805  0.76726588  0.09586877     0.12300
S4119       S  0.24215164  0.77493406  0.11179990    -0.05900
C4120       C  0.23542789  0.77662119  0.10198706    -0.09300
C4121       C  0.23869675  0.77219007  0.09396235    -0.25900
S4122       S  0.26661090  0.74960070  0.08686383    -0.03100
C4123       C  0.27317499  0.74806360  0.09686252    -0.16600
C4124       C  0.27003303  0.75309041  0.10454627    -0.14600
H4125       H  0.25931327  0.76450349  0.11585147     0.20800
H4126       H  0.24960893  0.76076945  0.08238745     0.16800
H4127       H  0.23531916  0.77238082  0.08719051     0.19300
H4128       H  0.27316074  0.75299258  0.11143853     0.12700
C4129       C  0.44893770  0.68652036  0.17725870     0.16600
C4130       C  0.45761408  0.68217794  0.17692025    -0.32500
C4131       C  0.45892207  0.67508139  0.17024032     0.20900
C4132       C  0.45193653  0.67243032  0.16414445     0.03100
C4133       C  0.44325127  0.67673162  0.16452076    -0.22200
C4134       C  0.44193779  0.68380926  0.17120821     0.12300
S4135       S  0.44592863  0.69530675  0.18481317    -0.05900
C4136       C  0.43509419  0.69526568  0.17981136    -0.09300
C4137       C  0.43399346  0.68878857  0.17264088    -0.25900
S4138       S  0.45499334  0.66385101  0.15639071    -0.03100
C4139       C  0.46580204  0.66380113  0.16143335    -0.16600
C4140       C  0.46687527  0.67011849  0.16875419    -0.14600
H4141       H  0.46311245  0.68425720  0.18163088     0.20800
H4142       H  0.43776570  0.67468126  0.15978140     0.16800
H4143       H  0.42771297  0.68773706  0.16865955     0.19300
H4144       H  0.47318163  0.67117274  0.17269264     0.12700
C4145       C  0.40858389  0.76028327  0.23866157     0.16600
C4146       C  0.41216993  0.76530022  0.24633398    -0.32500
C4147       C  0.40588622  0.77015781  0.25208897     0.20900
C4148       C  0.39648021  0.76998610  0.25025567     0.03100
C4149       C  0.39292710  0.76508304  0.24255892    -0.22200
C4150       C  0.39918175  0.76025887  0.23683076     0.12300
S4151       S  0.41492512  0.75366712  0.23098080    -0.05900
C4152       C  0.40478505  0.75091520  0.22523185    -0.09300
C4153       C  0.39697393  0.75496881  0.22913939    -0.25900
S4154       S  0.38991598  0.77594363  0.25816754    -0.03100
C4155       C  0.39990813  0.77880357  0.26408586    -0.16600
C4156       C  0.40791986  0.77529661  0.26000619    -0.14600
H4157       H  0.41950645  0.76532875  0.24780971     0.20800
H4158       H  0.38557538  0.76494553  0.24115666     0.16800
H4159       H  0.38999353  0.75398008  0.22660804     0.19300
H4160       H  0.41481238  0.77627113  0.26278305     0.12700
C4161       C  0.35322927  0.70961129  0.15890904     0.16600
C4162       C  0.34832186  0.70604362  0.15124166    -0.32500
C4163       C  0.34093401  0.71138113  0.14780997     0.20900
C4164       C  0.33840935  0.71979359  0.15194710     0.03100
C4165       C  0.34322203  0.72328140  0.15972699    -0.22200
C4166       C  0.35074270  0.71804260  0.16304010     0.12300
S4167       S  0.36294083  0.70465494  0.16346600    -0.05900
C4168       C  0.36381354  0.71413887  0.17090223    -0.09300
C4169       C  0.35674466  0.72063697  0.17001218    -0.25900
S4170       S  0.32953694  0.72543095  0.14644352    -0.03100
C4171       C  0.32927921  0.71640455  0.13842022    -0.16600
C4172       C  0.33570495  0.70937915  0.14006714    -0.14600
H4173       H  0.35037757  0.69955805  0.14789107     0.20800
H4174       H  0.34138514  0.72994229  0.16285342     0.16800
H4175       H  0.35627184  0.72713478  0.17390003     0.19300
H4176       H  0.33666457  0.70323129  0.13572920     0.12700
loop_ 
_geom_bond_atom_site_label_1 
_geom_bond_atom_site_label_2 
_geom_bond_distance 
_geom_bond_site_symmetry_2 
_ccdc_geom_bond_type 
N1            N2   1.320       .  A
N1            C5   1.348       .  A
N1           Cu9   2.082       .  S
N2            C3   1.340       .  A
N2           Cu8   2.051       .  S
C3            C4   1.380       .  A
C3            H6   1.082       .  S
C4            C5   1.389       .  A
C4         C4168   1.473       .  S
C5            H7   1.082       .  S
Cu8          N11   2.052       .  S
Cu9          N19   2.084       .  S
Cu10         N12   2.087       .  S
Cu10         N18   2.089       .  S
N11          N12   1.321       .  A
N11          C15   1.340       .  A
N12          C13   1.348       .  A
C13          C14   1.389       .  A
C13          H16   1.082       .  S
C14          C15   1.381       .  A
C14        C4136   1.475       .  S
C15          H17   1.082       .  S
N18          N19   1.325       .  A
N18          C22   1.348       .  A
N19          C20   1.344       .  A
C20          C21   1.385       .  A
C20          H23   1.081       .  S
C21          C22   1.386       .  A
C21        C4152   1.480       .  S
C22          H24   1.082       .  S
N25          N26   1.320       .  A
N25          C29   1.345       .  A
N25         Cu33   2.074       .  S
N26          C27   1.343       .  A
N26         Cu32   2.060       .  S
C27          C28   1.384       .  A
C27          H30   1.081       .  S
C28          C29   1.386       .  A
C28        C4171   1.475       .  S
C29          H31   1.082       .  S
Cu32         N35   2.060       .  S
Cu33         N43   2.076       .  S
Cu34         N36   2.089       .  S
Cu34         N42   2.089       .  S
N35          N36   1.322       .  A
N35          C39   1.340       .  A
N36          C37   1.350       .  A
C37          C38   1.389       .  A
C37          H40   1.082       .  S
C38          C39   1.379       .  A
C38        C4107   1.474       .  S
C39          H41   1.082       .  S
N42          N43   1.323       .  A
N42          C46   1.349       .  A
N43          C44   1.343       .  A
C44          C45   1.385       .  A
C44          H47   1.081       .  S
C45          C46   1.387       .  A
C45        C4123   1.480       .  S
C46          H48   1.082       .  S
N49          N50   1.320       .  A
N49          C53   1.349       .  A
N49         Cu57   2.078       .  S
N50          C51   1.342       .  A
N50         Cu56   2.068       .  S
C51          C52   1.384       .  A
C51          H54   1.082       .  S
C52          C53   1.388       .  A
C52        C4091   1.477       .  S
C53          H55   1.082       .  S
Cu56         N59   2.068       .  S
Cu57         N67   2.080       .  S
Cu58         N60   2.104       .  S
Cu58         N66   2.105       .  S
N59          N60   1.323       .  A
N59          C63   1.343       .  A
N60          C61   1.352       .  A
C61          C62   1.392       .  A
C61          H64   1.082       .  S
C62          C63   1.382       .  A
C62        C4059   1.483       .  S
C63          H65   1.082       .  S
N66          N67   1.325       .  A
N66          C70   1.352       .  A
N67          C68   1.344       .  A
C68          C69   1.384       .  A
C68          H71   1.081       .  S
C69          C70   1.390       .  A
C69        C4072   1.484       .  S
C70          H72   1.082       .  S
N73          N74   1.320       .  A
N73          C77   1.348       .  A
N73         Cu81   2.078       .  S
N74          C75   1.342       .  A
N74         Cu80   2.063       .  S
C75          C76   1.384       .  A
C75          H78   1.081       .  S
C76          C77   1.388       .  A
C76        C4088   1.478       .  S
C77          H79   1.082       .  S
Cu80         N83   2.064       .  S
Cu81         N91   2.079       .  S
Cu82         N84   2.091       .  S
Cu82         N90   2.091       .  S
N83          N84   1.322       .  A
N83          C87   1.344       .  A
N84          C85   1.347       .  A
C85          C86   1.388       .  A
C85          H88   1.082       .  S
C86          C87   1.382       .  A
C86        C4043   1.478       .  S
C87          H89   1.082       .  S
N90          N91   1.324       .  A
N90          C94   1.350       .  A
N91          C92   1.343       .  A
C92          C93   1.382       .  A
C92          H95   1.082       .  S
C93          C94   1.387       .  A
C93        C4120   1.477       .  S
C94          H96   1.082       .  S
N97          N98   1.321       .  A
N97         C101   1.350       .  A
N97        Cu105   2.078       .  S
N98          C99   1.339       .  A
N98        Cu104   2.061       .  S
C99         C100   1.381       .  A
C99         H102   1.082       .  S
C100        C101   1.388       .  A
C100       C4024   1.475       .  S
C101        H103   1.082       .  S
Cu104       N107   2.062       .  S
Cu105       N115   2.080       .  S
Cu106       N108   2.095       .  S
Cu106       N114   2.096       .  S
N107        N108   1.321       .  A
N107        C111   1.346       .  A
N108        C109   1.347       .  A
C109        C110   1.390       .  A
C109        H112   1.082       .  S
C110        C111   1.383       .  A
C110       C3992   1.481       .  S
C111        H113   1.082       .  S
N114        N115   1.324       .  A
N114        C118   1.351       .  A
N115        C116   1.343       .  A
C116        C117   1.384       .  A
C116        H119   1.081       .  S
C117        C118   1.388       .  A
C117       C4008   1.481       .  S
C118        H120   1.082       .  S
N121        N122   1.320       .  A
N121        C125   1.349       .  A
N121       Cu129   2.077       .  S
N122        C123   1.341       .  A
N122       Cu128   2.060       .  S
C123        C124   1.383       .  A
C123        H126   1.081       .  S
C124        C125   1.387       .  A
C124       C4027   1.475       .  S
C125        H127   1.082       .  S
Cu128       N131   2.060       .  S
Cu129       N139   2.079       .  S
Cu130       N132   2.107       .  S
Cu130       N138   2.108       .  S
N131        N132   1.322       .  A
N131        C135   1.343       .  A
N132        C133   1.351       .  A
C133        C134   1.392       .  A
C133        H136   1.082       .  S
C134        C135   1.381       .  A
C134       C3979   1.482       .  S
C135        H137   1.081       .  S
N138        N139   1.325       .  A
N138        C142   1.353       .  A
N139        C140   1.343       .  A
C140        C141   1.382       .  A
C140        H143   1.082       .  S
C141        C142   1.390       .  A
C141       C4075   1.483       .  S
C142        H144   1.082       .  S
N145        N146   1.318       .  A
N145        C149   1.350       .  A
N145       Cu153   2.083       .  S
N146        C147   1.340       .  A
N146       Cu152   2.050       .  S
C147        C148   1.382       .  A
C147        H150   1.082       .  S
C148        C149   1.391       .  A
C148       C3963   1.477       .  S
C149        H151   1.082       .  S
Cu152       N155   2.050       .  S
Cu153       N163   2.086       .  S
Cu154       N156   2.094       .  S
Cu154       N162   2.095       .  S
N155        N156   1.321       .  A
N155        C159   1.339       .  A
N156        C157   1.351       .  A
C157        C158   1.391       .  A
C157        H160   1.082       .  S
C158        C159   1.377       .  A
C158       C3944   1.474       .  S
C159        H161   1.082       .  S
N162        N163   1.326       .  A
N162        C166   1.351       .  A
N163        C164   1.342       .  A
C164        C165   1.382       .  A
C164        H167   1.082       .  S
C165        C166   1.387       .  A
C165       C4011   1.479       .  S
C166        H168   1.082       .  S
N169        N170   1.319       .  A
N169        C173   1.349       .  A
N169       Cu177   2.076       .  S
N170        C171   1.341       .  A
N170       Cu176   2.061       .  S
C171        C172   1.384       .  A
C171        H174   1.081       .  S
C172        C173   1.388       .  A
C172       C3960   1.477       .  S
C173        H175   1.082       .  S
Cu176       N179   2.061       .  S
Cu177       N187   2.078       .  S
Cu178       N180   2.105       .  S
Cu178       N186   2.105       .  S
N179        N180   1.322       .  A
N179        C183   1.342       .  A
N180        C181   1.351       .  A
C181        C182   1.393       .  A
C181        H184   1.082       .  S
C182        C183   1.380       .  A
C182       C3928   1.481       .  S
C183        H185   1.082       .  S
N186        N187   1.325       .  A
N186        C190   1.353       .  A
N187        C188   1.342       .  A
C188        C189   1.381       .  A
C188        H191   1.082       .  S
C189        C190   1.390       .  A
C189       C4155   1.481       .  S
C190        H192   1.082       .  S
C193        N194   1.360       .  A
C193        N198   1.358       .  A
C193       C3912   1.478       .  S
N194        C195   1.362       .  A
C195        N196   1.363       .  A
C195       C3896   1.479       .  S
N196        C197   1.360       .  A
C197        N198   1.358       .  A
C197       C3880   1.481       .  S
N199        N200   1.319       .  A
N199        C203   1.337       .  A
N199       Cu207   2.045       .  S
N200        C201   1.352       .  A
N200       Cu206   2.090       .  S
C201        C202   1.393       .  A
C201        H204   1.082       .  S
C202        C203   1.378       .  A
C202       C3947   1.475       .  S
C203        H205   1.082       .  S
Cu206       N209   2.093       .  S
Cu207       N217   2.046       .  S
Cu208       N210   2.099       .  S
Cu208       N216   2.096       .  S
N209        N210   1.328       .  A
N209        C213   1.348       .  A
N210        C211   1.346       .  A
C211        C212   1.385       .  A
C211        H214   1.082       .  S
C212        C213   1.384       .  A
C212       C3915   1.479       .  S
C213        H215   1.082       .  S
N216        N217   1.319       .  A
N216        C220   1.354       .  A
N217        C218   1.337       .  A
C218        C219   1.379       .  A
C218        H221   1.082       .  S
C219        C220   1.394       .  A
C219       C3867   1.479       .  S
C220        H222   1.082       .  S
C223        N224   1.360       .  A
C223        N228   1.362       .  A
C223       C3848   1.479       .  S
N224        C225   1.358       .  A
C225        N226   1.359       .  A
C225       C3899   1.479       .  S
N226        C227   1.359       .  A
C227        N228   1.362       .  A
C227       C3832   1.480       .  S
N229        N230   1.318       .  A
N229        C233   1.335       .  A
N229       Cu237   2.039       .  S
N230        C231   1.356       .  A
N230       Cu236   2.105       .  S
C231        C232   1.397       .  A
C231        H234   1.082       .  S
C232        C233   1.378       .  A
C232       C3931   1.482       .  S
C233        H235   1.082       .  S
Cu236       N239   2.109       .  S
Cu237       N247   2.038       .  S
Cu238       N240   2.097       .  S
Cu238       N246   2.093       .  S
N239        N240   1.329       .  A
N239        C243   1.348       .  A
N240        C241   1.348       .  A
C241        C242   1.384       .  A
C241        H244   1.082       .  S
C242        C243   1.386       .  A
C242       C3851   1.482       .  S
C243        H245   1.082       .  S
N246        N247   1.318       .  A
N246        C250   1.352       .  A
N247        C248   1.337       .  A
C248        C249   1.379       .  A
C248        H251   1.081       .  S
C249        C250   1.393       .  A
C249       C3816   1.477       .  S
C250        H252   1.082       .  S
N253        N254   1.320       .  A
N253        C257   1.339       .  A
N253       Cu261   2.050       .  S
N254        C255   1.354       .  A
N254       Cu260   2.099       .  S
C255        C256   1.394       .  A
C255        H258   1.082       .  S
C256        C257   1.380       .  A
C256       C3768   1.480       .  S
C257        H259   1.082       .  S
Cu260       N263   2.102       .  S
Cu261       N271   2.050   1_545  S
Cu262       N264   2.090   1_565  S
Cu262       N270   2.087       .  S
N263        N264   1.327       .  A
N263        C267   1.348       .  A
N264        C265   1.347   1_545  A
C265        C266   1.384   1_565  A
C265        H268   1.082       .  S
C266        C267   1.387       .  A
C266       C3800   1.482       .  S
C267        H269   1.082       .  S
N270        N271   1.319       .  A
N270        C274   1.351       .  A
N271        C272   1.337       .  A
C272        C273   1.381       .  A
C272        H275   1.081       .  S
C273        C274   1.391       .  A
C273       C3787   1.477       .  S
C274        H276   1.082       .  S
C277        N278   1.360       .  A
C277        N282   1.359       .  A
C277       C3803   1.479       .  S
N278        C279   1.361       .  A
C279        N280   1.361       .  A
C279       C3752   1.480       .  S
N280        C281   1.361       .  A
C281        N282   1.360       .  A
C281       C3835   1.479   1_545  S
N283        N284   1.318       .  A
N283        C287   1.335       .  A
N283       Cu291   2.034       .  S
N284        C285   1.353       .  A
N284       Cu290   2.095       .  S
C285        C286   1.394       .  A
C285        H288   1.082       .  S
C286        C287   1.376       .  A
C286       C3704   1.475       .  S
C287        H289   1.082       .  S
Cu290       N293   2.100       .  S
Cu291       N301   2.035   1_545  S
Cu292       N294   2.108   1_565  S
Cu292       N300   2.103       .  S
N293        N294   1.329       .  A
N293        C297   1.348       .  A
N294        C295   1.349   1_545  A
C295        C296   1.386   1_565  A
C295        H298   1.082       .  S
C296        C297   1.385       .  A
C296       C3736   1.484       .  S
C297        H299   1.082       .  S
N300        N301   1.318       .  A
N300        C304   1.354       .  A
N301        C302   1.337       .  A
C302        C303   1.378       .  A
C302        H305   1.082       .  S
C303        C304   1.395       .  A
C303       C3720   1.480       .  S
C304        H306   1.082       .  S
C307        N308   1.362       .  A
C307        N312   1.362       .  A
C307       C3739   1.483       .  S
N308        C309   1.361       .  A
C309        N310   1.360       .  A
C309       C3688   1.483       .  S
N310        C311   1.360       .  A
C311        N312   1.363       .  A
C311       C3883   1.482   1_545  S
N313        N314   1.321       .  A
N313        C317   1.339       .  A
N313       Cu321   2.054       .  S
N314        C315   1.353       .  A
N314       Cu320   2.098       .  S
C315        C316   1.393       .  A
C315        H318   1.082       .  S
C316        C317   1.380       .  A
C316       C3640   1.480       .  S
C317        H319   1.082       .  S
Cu320       N323   2.100       .  S
Cu321       N331   2.054       .  S
Cu322       N324   2.089       .  S
Cu322       N330   2.087       .  S
N323        N324   1.326       .  A
N323        C327   1.348       .  A
N324        C325   1.348       .  A
C325        C326   1.385       .  A
C325        H328   1.082       .  S
C326        C327   1.387       .  A
C326       C3675   1.483       .  S
C327        H329   1.082       .  S
N330        N331   1.321       .  A
N330        C334   1.347       .  A
N331        C332   1.342       .  A
C332        C333   1.381       .  A
C332        H335   1.082       .  S
C333        C334   1.389       .  A
C333       C3656   1.475       .  S
C334        H336   1.082       .  S
C337        N338   1.361       .  A
C337        N342   1.360       .  A
C337       C3672   1.482       .  S
N338        C339   1.362       .  A
C339        N340   1.363       .  A
C339       C3624   1.484       .  S
N340        C341   1.362       .  A
C341        N342   1.360       .  A
C341       C3691   1.484       .  S
C343        N344   1.363       .  A
C343        N348   1.359       .  A
C343       C3608   1.479       .  S
N344        C345   1.363       .  A
C345        N346   1.361       .  A
C345       C3627   1.483       .  S
N346        C347   1.360       .  A
C347        N348   1.358       .  A
C347       C3755   1.480       .  S
N349        N350   1.321       .  A
N349        C353   1.339       .  A
N349       Cu357   2.050       .  S
N350        C351   1.351       .  A
N350       Cu356   2.092       .  S
C351        C352   1.391       .  A
C351        H354   1.082       .  S
C352        C353   1.378       .  A
C352       C3595   1.475       .  S
C353        H355   1.082       .  S
Cu356       N359   2.094       .  S
Cu357       N367   2.049       .  S
Cu358       N360   2.090       .  S
Cu358       N366   2.088       .  S
N359        N360   1.326       .  A
N359        C363   1.348       .  A
N360        C361   1.346       .  A
C361        C362   1.385       .  A
C361        H364   1.082       .  S
C362        C363   1.387       .  A
C362       C3611   1.482       .  S
C363        H365   1.081       .  S
N366        N367   1.319       .  A
N366        C370   1.350       .  A
N367        C368   1.340       .  A
C368        C369   1.380       .  A
C368        H371   1.082       .  S
C369        C370   1.392       .  A
C369       C3576   1.476       .  S
C370        H372   1.082       .  S
N373        N374   1.320       .  A
N373        C377   1.352       .  A
N373       Cu381   2.087       .  S
N374        C375   1.339       .  A
N374       Cu380   2.056       .  S
C375        C376   1.380       .  A
C375        H378   1.082       .  S
C376        C377   1.390       .  A
C376       C3560   1.475       .  S
C377        H379   1.082       .  S
Cu380       N383   2.057       .  S
Cu381       N391   2.089       .  S
Cu382       N384   2.092       .  S
Cu382       N390   2.094       .  S
N383        N384   1.321       .  A
N383        C387   1.342       .  A
N384        C385   1.349       .  A
C385        C386   1.391       .  A
C385        H388   1.082       .  S
C386        C387   1.381       .  A
C386       C3528   1.478       .  S
C387        H389   1.082       .  S
N390        N391   1.326       .  A
N390        C394   1.349       .  A
N391        C392   1.345       .  A
C392        C393   1.385       .  A
C392        H395   1.081       .  S
C393        C394   1.386       .  A
C393       C3544   1.480       .  S
C394        H396   1.082       .  S
N397        N398   1.318       .  A
N397        C401   1.347       .  A
N397       Cu405   2.067       .  S
N398        C399   1.342       .  A
N398       Cu404   2.060       .  S
C399        C400   1.385       .  A
C399        H402   1.082       .  S
C400        C401   1.386       .  A
C400       C3563   1.475       .  S
C401        H403   1.082       .  S
Cu404       N407   2.060       .  S
Cu405       N415   2.068       .  S
Cu406       N408   2.107       .  S
Cu406       N414   2.107       .  S
N407        N408   1.324       .  A
N407        C411   1.340       .  A
N408        C409   1.352       .  A
C409        C410   1.392       .  A
C409        H412   1.082       .  S
C410        C411   1.378       .  A
C410       C3499   1.479       .  S
C411        H413   1.082       .  S
N414        N415   1.324       .  A
N414        C418   1.354       .  A
N415        C416   1.339       .  A
C416        C417   1.381       .  A
C416        H419   1.081       .  S
C417        C418   1.392       .  A
C417       C3512   1.482       .  S
C418        H420   1.082       .  S
N421        N422   1.321       .  A
N421        C425   1.347       .  A
N421       Cu429   2.076       .  S
N422        C423   1.341       .  A
N422       Cu428   2.063       .  S
C423        C424   1.382       .  A
C423        H426   1.082       .  S
C424        C425   1.387       .  A
C424       C3483   1.475       .  S
C425        H427   1.082       .  S
Cu428       N431   2.062       .  S
Cu429       N439   2.077       .  S
Cu430       N432   2.092       .  S
Cu430       N438   2.093       .  S
N431        N432   1.321       .  A
N431        C435   1.342       .  A
N432        C433   1.350       .  A
C433        C434   1.390       .  A
C433        H436   1.082       .  S
C434        C435   1.382       .  A
C434       C3451   1.480       .  S
C435        H437   1.082       .  S
N438        N439   1.325       .  A
N438        C442   1.346       .  A
N439        C440   1.346       .  A
C440        C441   1.384       .  A
C440        H443   1.082       .  S
C441        C442   1.385       .  A
C441       C3464   1.478       .  S
C442        H444   1.082       .  S
N445        N446   1.318       .  A
N445        C449   1.348       .  A
N445       Cu453   2.076       .  S
N446        C447   1.340       .  A
N446       Cu452   2.051       .  S
C447        C448   1.383       .  A
C447        H450   1.081       .  S
C448        C449   1.389       .  A
C448       C3480   1.476       .  S
C449        H451   1.082       .  S
Cu452       N455   2.051       .  S
Cu453       N463   2.079       .  S
Cu454       N456   2.100       .  S
Cu454       N462   2.102       .  S
N455        N456   1.322       .  A
N455        C459   1.338       .  A
N456        C457   1.353       .  A
C457        C458   1.393       .  A
C457        H460   1.082       .  S
C458        C459   1.377       .  A
C458       C3432   1.477       .  S
C459        H461   1.082       .  S
N462        N463   1.326       .  A
N462        C466   1.352       .  A
N463        C464   1.342       .  A
C464        C465   1.381       .  A
C464        H467   1.082       .  S
C465        C466   1.388       .  A
C465       C3547   1.478       .  S
C466        H468   1.082       .  S
N469        N470   1.320       .  A
N469        C473   1.349       .  A
N469       Cu477   2.076       .  S
N470        C471   1.340       .  A
N470       Cu476   2.062       .  S
C471        C472   1.382       .  A
C471        H474   1.082       .  S
C472        C473   1.388       .  A
C472       C3416   1.475       .  S
C473        H475   1.082       .  S
Cu476       N479   2.062       .  S
Cu477       N487   2.077       .  S
Cu478       N480   2.094       .  S
Cu478       N486   2.094       .  S
N479        N480   1.322       .  A
N479        C483   1.343       .  A
N480        C481   1.349       .  A
C481        C482   1.390       .  A
C481        H484   1.082       .  S
C482        C483   1.381       .  A
C482       C3643   1.479       .  S
C483        H485   1.082       .  S
N486        N487   1.324       .  A
N486        C490   1.350       .  A
N487        C488   1.343       .  A
C488        C489   1.382       .  A
C488        H491   1.082       .  S
C489        C490   1.387       .  A
C489       C3400   1.477       .  S
C490        H492   1.082       .  S
N493        N494   1.319       .  A
N493        C497   1.346       .  A
N493       Cu501   2.069       .  S
N494        C495   1.343       .  A
N494       Cu500   2.062       .  S
C495        C496   1.386       .  A
C495        H498   1.081       .  S
C496        C497   1.385       .  A
C496       C3419   1.476       .  S
C497        H499   1.082       .  S
Cu500       N503   2.061       .  S
Cu501       N511   2.071       .  S
Cu502       N504   2.094       .  S
Cu502       N510   2.094       .  S
N503        N504   1.323       .  A
N503        C507   1.340       .  A
N504        C505   1.350       .  A
C505        C506   1.390       .  A
C505        H508   1.082       .  S
C506        C507   1.379       .  A
C506       C3707   1.475       .  S
C507        H509   1.082       .  S
N510        N511   1.324       .  A
N510        C514   1.351       .  A
N511        C512   1.341       .  A
C512        C513   1.381       .  A
C512        H515   1.082       .  S
C513        C514   1.389       .  A
C513       C3515   1.479       .  S
C514        H516   1.082       .  S
N517        N518   1.318       .  A
N517        C521   1.348       .  A
N517       Cu525   2.067       .  S
N518        C519   1.336       .  A
N518       Cu524   2.044       .  S
C519        C520   1.381       .  A
C519        H522   1.081       .  S
C520        C521   1.387       .  A
C520       C3384   1.470       .  S
C521        H523   1.082       .  S
Cu524       N527   2.045       .  S
Cu525       N535   2.070       .  S
Cu526       N528   2.094       .  S
Cu526       N534   2.095       .  S
N527        N528   1.321       .  A
N527        C531   1.340       .  A
N528        C529   1.350       .  A
C529        C530   1.391       .  A
C529        H532   1.082       .  S
C530        C531   1.378       .  A
C530       C3368   1.474       .  S
C531        H533   1.082       .  S
N534        N535   1.325       .  A
N534        C538   1.349       .  A
N535        C536   1.341       .  A
C536        C537   1.381       .  A
C536        H539   1.081       .  S
C537        C538   1.387       .  A
C537       C3403   1.477       .  S
C538        H540   1.082       .  S
N541        N542   1.319       .  A
N541        C545   1.344       .  A
N541       Cu549   2.053       .  S
N542        C543   1.340       .  A
N542       Cu548   2.056       .  S
C543        C544   1.382       .  A
C543        H546   1.082       .  S
C544        C545   1.383       .  A
C544       C3387   1.465       .  S
C545        H547   1.082       .  S
Cu548       N551   2.057       .  S
Cu549       N559   2.055       .  S
Cu550       N552   2.102       .  S
Cu550       N558   2.102       .  S
N551        N552   1.323       .  A
N551        C555   1.342       .  A
N552        C553   1.350       .  A
C553        C554   1.390       .  A
C553        H556   1.082       .  S
C554        C555   1.380       .  A
C554       C3352   1.478       .  S
C555        H557   1.082       .  S
N558        N559   1.324       .  A
N558        C562   1.351       .  A
N559        C560   1.340       .  A
C560        C561   1.377       .  A
C560        H563   1.082       .  S
C561        C562   1.390       .  A
C561       C3467   1.474       .  S
C562        H564   1.082       .  S
N565        N566   1.320       .  A
N565        C569   1.341       .  A
N565       Cu573   2.051       .  S
N566        C567   1.352       .  A
N566       Cu572   2.098       .  S
C567        C568   1.394       .  A
C567        H570   1.082       .  S
C568        C569   1.381       .  A
C568       C3320   1.482       .  S
C569        H571   1.082       .  S
Cu572       N575   2.100       .  S
Cu573       N583   2.049   1_556  S
Cu574       N576   2.099       .  S
Cu574       N582   2.096       .  S
N575        N576   1.326   1_556  A
N575        C579   1.347       .  A
N576        C577   1.350       .  A
C577        C578   1.388   1_554  A
C577        H580   1.082       .  S
C578        C579   1.386       .  A
C578       C3339   1.486       .  S
C579        H581   1.082       .  S
N582        N583   1.321       .  A
N582        C586   1.352       .  A
N583        C584   1.338       .  A
C584        C585   1.378       .  A
C584        H587   1.082       .  S
C585        C586   1.393       .  A
C585       C4104   1.477       .  S
C586        H588   1.082       .  S
C589        N590   1.365       .  A
C589        N594   1.361   1_556  A
C589       C3336   1.485       .  S
N590        C591   1.364       .  A
C591        N592   1.362       .  A
C591       C3288   1.487       .  S
N592        C593   1.360   1_556  A
C593        N594   1.360       .  A
C593       C3304   1.485       .  S
C595        N596   1.366       .  A
C595        N600   1.362       .  A
C595       C3272   1.484       .  S
N596        C597   1.365       .  A
C597        N598   1.362       .  A
C597       C3256   1.488       .  S
N598        C599   1.360       .  A
C599        N600   1.358       .  A
C599       C3291   1.485       .  S
N601        N602   1.320       .  A
N601        C605   1.338       .  A
N601       Cu609   2.048       .  S
N602        C603   1.354       .  A
N602       Cu608   2.107       .  S
C603        C604   1.395       .  A
C603        H606   1.082       .  S
C604        C605   1.380       .  A
C604       C3240   1.483       .  S
C605        H607   1.081       .  S
Cu608       N611   2.110       .  S
Cu609       N619   2.048       .  S
Cu610       N612   2.093       .  S
Cu610       N618   2.090       .  S
N611        N612   1.327       .  A
N611        C615   1.351       .  A
N612        C613   1.346       .  A
C613        C614   1.383       .  A
C613        H616   1.082       .  S
C614        C615   1.388       .  A
C614       C3275   1.483       .  S
C615        H617   1.082       .  S
N618        N619   1.319       .  A
N618        C622   1.351       .  A
N619        C620   1.340       .  A
C620        C621   1.381       .  A
C620        H623   1.082       .  S
C621        C622   1.391       .  A
C621       C3355   1.477       .  S
C622        H624   1.082       .  S
C625        N626   1.358       .  A
C625        N630   1.361       .  A
C625       C3224   1.483       .  S
N626        C627   1.360       .  A
C627        N628   1.364       .  A
C627       C3208   1.487       .  S
N628        C629   1.366       .  A
C629        N630   1.363       .  A
C629       C3259   1.488       .  S
N631        N632   1.320       .  A
N631        C635   1.338       .  A
N631       Cu639   2.045       .  S
N632        C633   1.353       .  A
N632       Cu638   2.099       .  S
C633        C634   1.393       .  A
C633        H636   1.082       .  S
C634        C635   1.378       .  A
C634       C3371   1.477       .  S
C635        H637   1.082       .  S
Cu638       N641   2.102       .  S
Cu639       N649   2.045       .  S
Cu640       N642   2.095       .  S
Cu640       N648   2.092       .  S
N641        N642   1.326       .  A
N641        C645   1.349       .  A
N642        C643   1.347       .  A
C643        C644   1.386       .  A
C643        H646   1.081       .  S
C644        C645   1.387       .  A
C644       C3227   1.486       .  S
C645        H647   1.082       .  S
N648        N649   1.319       .  A
N648        C652   1.351       .  A
N649        C650   1.339       .  A
C650        C651   1.379       .  A
C650        H653   1.082       .  S
C651        C652   1.392       .  A
C651       C3192   1.476       .  S
C652        H654   1.082       .  S
N655        N656   1.320       .  A
N655        C659   1.339       .  A
N655       Cu663   2.048   1_554  S
N656        C657   1.353       .  A
N656       Cu662   2.101       .  S
C657        C658   1.394       .  A
C657        H660   1.082       .  S
C658        C659   1.379       .  A
C658       C3144   1.480       .  S
C659        H661   1.082       .  S
Cu662       N665   2.104   1_554  S
Cu663       N673   2.047       .  S
Cu664       N666   2.100       .  S
Cu664       N672   2.096       .  S
N665        N666   1.327       .  A
N665        C669   1.348   1_556  A
N666        C667   1.350       .  A
C667        C668   1.387       .  A
C667        H670   1.082       .  S
C668        C669   1.387   1_556  A
C668       C3176   1.486       .  S
C669        H671   1.082       .  S
N672        N673   1.320       .  A
N672        C676   1.351       .  A
N673        C674   1.339       .  A
C674        C675   1.379       .  A
C674        H677   1.082       .  S
C675        C676   1.393       .  A
C675       C3160   1.477       .  S
C676        H678   1.082       .  S
C679        N680   1.361       .  A
C679        N684   1.363       .  A
C679       C3179   1.488       .  S
N680        C681   1.362       .  A
C681        N682   1.363       .  A
C681       C3211   1.487       .  S
N682        C683   1.364       .  A
C683        N684   1.364       .  A
C683       C3128   1.489   1_556  S
C685        N686   1.363       .  A
C685        N690   1.358       .  A
C685       C3112   1.482       .  S
N686        C687   1.365       .  A
C687        N688   1.364       .  A
C687       C3131   1.489       .  S
N688        C689   1.363       .  A
C689        N690   1.357       .  A
C689       C3096   1.483       .  S
N691        N692   1.319       .  A
N691        C695   1.337       .  A
N691       Cu699   2.042       .  S
N692        C693   1.353       .  A
N692       Cu698   2.100       .  S
C693        C694   1.395       .  A
C693        H696   1.082       .  S
C694        C695   1.380       .  A
C694       C3080   1.481       .  S
C695        H697   1.081       .  S
Cu698       N701   2.103       .  S
Cu699       N709   2.043       .  S
Cu700       N702   2.098       .  S
Cu700       N708   2.094       .  S
N701        N702   1.327       .  A
N701        C705   1.348       .  A
N702        C703   1.348       .  A
C703        C704   1.385       .  A
C703        H706   1.082       .  S
C704        C705   1.387       .  A
C704       C3115   1.484       .  S
C705        H707   1.082       .  S
N708        N709   1.319       .  A
N708        C712   1.352       .  A
N709        C710   1.337       .  A
C710        C711   1.380       .  A
C710        H713   1.082       .  S
C711        C712   1.393       .  A
C711       C3064   1.479       .  S
C712        H714   1.082       .  S
C715        N716   1.361       .  A
C715        N720   1.361       .  A
C715       C3048   1.481       .  S
N716        C717   1.361       .  A
C717        N718   1.361       .  A
C717       C3099   1.484       .  S
N718        C719   1.362       .  A
C719        N720   1.361       .  A
C719       C3307   1.484       .  S
N721        N722   1.321       .  A
N721        C725   1.339       .  A
N721       Cu729   2.051       .  S
N722        C723   1.351       .  A
N722       Cu728   2.096       .  S
C723        C724   1.391       .  A
C723        H726   1.082       .  S
C724        C725   1.380       .  A
C724       C3035   1.478       .  S
C725        H727   1.081       .  S
Cu728       N731   2.098       .  S
Cu729       N739   2.051       .  S
Cu730       N732   2.085       .  S
Cu730       N738   2.082       .  S
N731        N732   1.325       .  A
N731        C735   1.348       .  A
N732        C733   1.346       .  A
C733        C734   1.384       .  A
C733        H736   1.082       .  S
C734        C735   1.388       .  A
C734       C3051   1.482       .  S
C735        H737   1.082       .  S
N738        N739   1.320       .  A
N738        C742   1.347       .  A
N739        C740   1.341       .  A
C740        C741   1.381       .  A
C740        H743   1.082       .  S
C741        C742   1.388       .  A
C741       C4139   1.474       .  S
C742        H744   1.082       .  S
N745        N746   1.319       .  A
N745        C749   1.350       .  A
N745       Cu753   2.079       .  S
N746        C747   1.338       .  A
N746       Cu752   2.054       .  S
C747        C748   1.381       .  A
C747        H750   1.082       .  S
C748        C749   1.389       .  A
C748       C3016   1.474       .  S
C749        H751   1.082       .  S
Cu752       N755   2.054       .  S
Cu753       N763   2.082       .  S
Cu754       N756   2.084       .  S
Cu754       N762   2.086       .  S
N755        N756   1.320       .  A
N755        C759   1.339       .  A
N756        C757   1.350       .  A
C757        C758   1.389       .  A
C757        H760   1.082       .  S
C758        C759   1.381       .  A
C758       C3659   1.474       .  S
C759        H761   1.082       .  S
N762        N763   1.326       .  A
N762        C766   1.347       .  A
N763        C764   1.344       .  A
C764        C765   1.383       .  A
C764        H767   1.082       .  S
C765        C766   1.383       .  A
C765       C3000   1.474       .  S
C766        H768   1.082       .  S
N769        N770   1.317       .  A
N769        C773   1.349       .  A
N769       Cu777   2.071       .  S
N770        C771   1.339       .  A
N770       Cu776   2.049       .  S
C771        C772   1.384       .  A
C771        H774   1.081       .  S
C772        C773   1.388       .  A
C772       C3019   1.475       .  S
C773        H775   1.082       .  S
Cu776       N779   2.049       .  S
Cu777       N787   2.074       .  S
Cu778       N780   2.103       .  S
Cu778       N786   2.105       .  S
N779        N780   1.321       .  A
N779        C783   1.338       .  A
N780        C781   1.353       .  A
C781        C782   1.393       .  A
C781        H784   1.082       .  S
C782        C783   1.377       .  A
C782       C3579   1.476       .  S
C783        H785   1.082       .  S
N786        N787   1.326       .  A
N786        C790   1.352       .  A
N787        C788   1.341       .  A
C788        C789   1.379       .  A
C788        H791   1.082       .  S
C789        C790   1.389       .  A
C789       C2984   1.477       .  S
C790        H792   1.082       .  S
N793        N794   1.319       .  A
N793        C797   1.346       .  A
N793       Cu801   2.066       .  S
N794        C795   1.340       .  A
N794       Cu800   2.055       .  S
C795        C796   1.381       .  A
C795        H798   1.082       .  S
C796        C797   1.386       .  A
C796       C2968   1.470       .  S
C797        H799   1.082       .  S
Cu800       N803   2.055       .  S
Cu801       N811   2.068       .  S
Cu802       N804   2.090       .  S
Cu802       N810   2.091       .  S
N803        N804   1.322       .  A
N803        C807   1.340       .  A
N804        C805   1.350       .  A
C805        C806   1.390       .  A
C805        H808   1.082       .  S
C806        C807   1.379       .  A
C806       C3195   1.474       .  S
C807        H809   1.082       .  S
N810        N811   1.324       .  A
N810        C814   1.349       .  A
N811        C812   1.341       .  A
C812        C813   1.380       .  A
C812        H815   1.082       .  S
C813        C814   1.387       .  A
C813       C3003   1.475       .  S
C814        H816   1.082       .  S
N817        N818   1.318       .  A
N817        C821   1.343       .  A
N817       Cu825   2.055       .  S
N818        C819   1.342       .  A
N818       Cu824   2.057       .  S
C819        C820   1.385       .  A
C819        H822   1.081       .  S
C820        C821   1.383       .  A
C820       C2971   1.470       .  S
C821        H823   1.082       .  S
Cu824       N827   2.058       .  S
Cu825       N835   2.057       .  S
Cu826       N828   2.096       .  S
Cu826       N834   2.096       .  S
N827        N828   1.323       .  A
N827        C831   1.339       .  A
N828        C829   1.351       .  A
C829        C830   1.390       .  A
C829        H832   1.082       .  S
C830        C831   1.379       .  A
C830       C3163   1.476       .  S
C831        H833   1.082       .  S
N834        N835   1.323       .  A
N834        C838   1.351       .  A
N835        C836   1.339       .  A
C836        C837   1.378       .  A
C836        H839   1.082       .  S
C837        C838   1.389       .  A
C837       C2952   1.475       .  S
C838        H840   1.082       .  S
N841        N842   1.319       .  A
N841        C845   1.349       .  A
N841       Cu849   2.077       .  S
N842        C843   1.340       .  A
N842       Cu848   2.058       .  S
C843        C844   1.384       .  A
C843        H846   1.081       .  S
C844        C845   1.388       .  A
C844       C2936   1.477       .  S
C845        H847   1.082       .  S
Cu848       N851   2.057       .  S
Cu849       N859   2.079       .  S
Cu850       N852   2.095       .  S
Cu850       N858   2.096       .  S
N851        N852   1.322       .  A
N851        C855   1.341       .  A
N852        C853   1.350       .  A
C853        C854   1.391       .  A
C853        H856   1.082       .  S
C854        C855   1.379       .  A
C854       C2920   1.476       .  S
C855        H857   1.082       .  S
N858        N859   1.325       .  A
N858        C862   1.349       .  A
N859        C860   1.344       .  A
C860        C861   1.383       .  A
C860        H863   1.082       .  S
C861        C862   1.387       .  A
C861       C2987   1.479       .  S
C862        H864   1.082       .  S
N865        N866   1.320       .  A
N865        C869   1.351       .  A
N865       Cu873   2.083       .  S
N866        C867   1.340       .  A
N866       Cu872   2.064       .  S
C867        C868   1.382       .  A
C867        H870   1.082       .  S
C868        C869   1.389       .  A
C868       C2939   1.476       .  S
C869        H871   1.082       .  S
Cu872       N875   2.064       .  S
Cu873       N883   2.085       .  S
Cu874       N876   2.101       .  S
Cu874       N882   2.101       .  S
N875        N876   1.322       .  A
N875        C879   1.344       .  A
N876        C877   1.349       .  A
C877        C878   1.391       .  A
C877        H880   1.082       .  S
C878        C879   1.383       .  A
C878       C2888   1.482       .  S
C879        H881   1.082       .  S
N882        N883   1.325       .  A
N882        C886   1.352       .  A
N883        C884   1.344       .  A
C884        C885   1.382       .  A
C884        H887   1.082       .  S
C885        C886   1.388       .  A
C885       C2904   1.480       .  S
C886        H888   1.082       .  S
N889        N890   1.320       .  A
N889        C893   1.349       .  A
N889       Cu897   2.079       .  S
N890        C891   1.340       .  A
N890       Cu896   2.060       .  S
C891        C892   1.382       .  A
C891        H894   1.082       .  S
C892        C893   1.388       .  A
C892       C2872   1.476       .  S
C893        H895   1.082       .  S
Cu896       N899   2.061       .  S
Cu897       N907   2.080       .  S
Cu898       N900   2.084       .  S
Cu898       N906   2.084       .  S
N899        N900   1.321       .  A
N899        C903   1.343       .  A
N900        C901   1.347       .  A
C901        C902   1.389       .  A
C901        H904   1.081       .  S
C902        C903   1.381       .  A
C902       C2859   1.476       .  S
C903        H905   1.082       .  S
N906        N907   1.324       .  A
N906        C910   1.348       .  A
N907        C908   1.343       .  A
C908        C909   1.385       .  A
C908        H911   1.081       .  S
C909        C910   1.385       .  A
C909       C2955   1.478       .  S
C910        H912   1.082       .  S
N913        N914   1.318       .  A
N913        C917   1.348       .  A
N913       Cu921   2.074       .  S
N914        C915   1.340       .  A
N914       Cu920   2.053       .  S
C915        C916   1.383       .  A
C915        H918   1.081       .  S
C916        C917   1.388       .  A
C916       C2875   1.475       .  S
C917        H919   1.082       .  S
Cu920       N923   2.053       .  S
Cu921       N931   2.076       .  S
Cu922       N924   2.101       .  S
Cu922       N930   2.102       .  S
N923        N924   1.323       .  A
N923        C927   1.341       .  A
N924        C925   1.349       .  A
C925        C926   1.391       .  A
C925        H928   1.082       .  S
C926        C927   1.378       .  A
C926       C2840   1.475       .  S
C927        H929   1.082       .  S
N930        N931   1.324       .  A
N930        C934   1.353       .  A
N931        C932   1.341       .  A
C932        C933   1.383       .  A
C932        H935   1.081       .  S
C933        C934   1.391       .  A
C933       C2907   1.484       .  S
C934        H936   1.082       .  S
N937        N938   1.319       .  A
N937        C941   1.347       .  A
N937       Cu945   2.071       .  S
N938        C939   1.340       .  A
N938       Cu944   2.053       .  S
C939        C940   1.381       .  A
C939        H942   1.082       .  S
C940        C941   1.387       .  A
C940       C2824   1.472       .  S
C941        H943   1.082       .  S
Cu944       N947   2.052       .  S
Cu945       N955   2.073       .  S
Cu946       N948   2.094       .  S
Cu946       N954   2.094       .  S
N947        N948   1.321       .  A
N947        C951   1.340       .  A
N948        C949   1.349       .  A
C949        C950   1.390       .  A
C949        H952   1.082       .  S
C950        C951   1.380       .  A
C950       C3067   1.477       .  S
C951        H953   1.082       .  S
N954        N955   1.324       .  A
N954        C958   1.349       .  A
N955        C956   1.343       .  A
C956        C957   1.382       .  A
C956        H959   1.082       .  S
C957        C958   1.386       .  A
C957       C2808   1.477       .  S
C958        H960   1.082       .  S
N961        N962   1.320       .  A
N961        C965   1.346       .  A
N961       Cu969   2.063       .  S
N962        C963   1.341       .  A
N962       Cu968   2.067       .  S
C963        C964   1.385       .  A
C963        H966   1.081       .  S
C964        C965   1.385       .  A
C964       C2827   1.473       .  S
C965        H967   1.082       .  S
Cu968       N971   2.068       .  S
Cu969       N979   2.064       .  S
Cu970       N972   2.084       .  S
Cu970       N978   2.084       .  S
N971        N972   1.322       .  A
N971        C975   1.344       .  A
N972        C973   1.347       .  A
C973        C974   1.387       .  A
C973        H976   1.082       .  S
C974        C975   1.383       .  A
C974       C3032   1.477       .  S
C975        H977   1.081       .  S
N978        N979   1.323       .  A
N978        C982   1.349       .  A
N979        C980   1.340       .  A
C980        C981   1.380       .  A
C980        H983   1.082       .  S
C981        C982   1.386       .  A
C981       C2792   1.472       .  S
C982        H984   1.082       .  S
N985        N986   1.319       .  A
N985        C989   1.349       .  A
N985       Cu993   2.081       .  S
N986        C987   1.341       .  A
N986       Cu992   2.058       .  S
C987        C988   1.383       .  A
C987        H990   1.081       .  S
C988        C989   1.388       .  A
C988       C2779   1.477       .  S
C989        H991   1.082       .  S
Cu992       N995   2.058       .  S
Cu993      N1003   2.082       .  S
Cu994       N996   2.091       .  S
Cu994      N1002   2.092       .  S
N995        N996   1.322       .  A
N995        C999   1.341       .  A
N996        C997   1.349       .  A
C997        C998   1.390       .  A
C997       H1000   1.082       .  S
C998        C999   1.380       .  A
C998       C2760   1.476       .  S
C999       H1001   1.082       .  S
N1002      N1003   1.325       .  A
N1002      C1006   1.350       .  A
N1003      C1004   1.343       .  A
C1004      C1005   1.382       .  A
C1004      H1007   1.082       .  S
C1005      C1006   1.387       .  A
C1005      C2811   1.478       .  S
C1006      H1008   1.082       .  S
N1009      N1010   1.319       .  A
N1009      C1013   1.345       .  A
N1009     Cu1017   2.067       .  S
N1010      C1011   1.344       .  A
N1010     Cu1016   2.069       .  S
C1011      C1012   1.386       .  A
C1011      H1014   1.082       .  S
C1012      C1013   1.386       .  A
C1012      C2776   1.477       .  S
C1013      H1015   1.081       .  S
Cu1016     N1019   2.069       .  S
Cu1017     N1027   2.068       .  S
Cu1018     N1020   2.095       .  S
Cu1018     N1026   2.095       .  S
N1019      N1020   1.323       .  A
N1019      C1023   1.341       .  A
N1020      C1021   1.351       .  A
C1021      C1022   1.391       .  A
C1021      H1024   1.082       .  S
C1022      C1023   1.381       .  A
C1022      C2728   1.480       .  S
C1023      H1025   1.082       .  S
N1026      N1027   1.323       .  A
N1026      C1030   1.351       .  A
N1027      C1028   1.340       .  A
C1028      C1029   1.382       .  A
C1028      H1031   1.081       .  S
C1029      C1030   1.388       .  A
C1029      C2747   1.478       .  S
C1030      H1032   1.082       .  S
N1033      N1034   1.320       .  A
N1033      C1037   1.348       .  A
N1033     Cu1041   2.073       .  S
N1034      C1035   1.340       .  A
N1034     Cu1040   2.061       .  S
C1035      C1036   1.383       .  A
C1035      H1038   1.081       .  S
C1036      C1037   1.387       .  A
C1036      C2712   1.475       .  S
C1037      H1039   1.082       .  S
Cu1040     N1043   2.061       .  S
Cu1041     N1051   2.074       .  S
Cu1042     N1044   2.078       .  S
Cu1042     N1050   2.079       .  S
N1043      N1044   1.321       .  A
N1043      C1047   1.342       .  A
N1044      C1045   1.347       .  A
C1045      C1046   1.387       .  A
C1045      H1048   1.082       .  S
C1046      C1047   1.382       .  A
C1046      C3819   1.475       .  S
C1047      H1049   1.081       .  S
N1050      N1051   1.324       .  A
N1050      C1054   1.347       .  A
N1051      C1052   1.341       .  A
C1052      C1053   1.383       .  A
C1052      H1055   1.081       .  S
C1053      C1054   1.384       .  A
C1053      C2795   1.473       .  S
C1054      H1056   1.082       .  S
N1057      N1058   1.320       .  A
N1057      C1061   1.348       .  A
N1057     Cu1065   2.077       .  S
N1058      C1059   1.341       .  A
N1058     Cu1064   2.061       .  S
C1059      C1060   1.382       .  A
C1059      H1062   1.082       .  S
C1060      C1061   1.388       .  A
C1060      C2715   1.475       .  S
C1061      H1063   1.082       .  S
Cu1064     N1067   2.061       .  S
Cu1065     N1075   2.079       .  S
Cu1066     N1068   2.086       .  S
Cu1066     N1074   2.086       .  S
N1067      N1068   1.322       .  A
N1067      C1071   1.343       .  A
N1068      C1069   1.347       .  A
C1069      C1070   1.387       .  A
C1069      H1072   1.082       .  S
C1070      C1071   1.381       .  A
C1070      C3784   1.473       .  S
C1071      H1073   1.082       .  S
N1074      N1075   1.323       .  A
N1074      C1078   1.349       .  A
N1075      C1076   1.343       .  A
C1076      C1077   1.383       .  A
C1076      H1079   1.082       .  S
C1077      C1078   1.387       .  A
C1077      C2696   1.479       .  S
C1078      H1080   1.082       .  S
N1081      N1082   1.320       .  A
N1081      C1085   1.349       .  A
N1081     Cu1089   2.073       .  S
N1082      C1083   1.339       .  A
N1082     Cu1088   2.060       .  S
C1083      C1084   1.383       .  A
C1083      H1086   1.081       .  S
C1084      C1085   1.387       .  A
C1084      C2680   1.475       .  S
C1085      H1087   1.082       .  S
Cu1088     N1091   2.060       .  S
Cu1089     N1099   2.075       .  S
Cu1090     N1092   2.083       .  S
Cu1090     N1098   2.083       .  S
N1091      N1092   1.321       .  A
N1091      C1095   1.342       .  A
N1092      C1093   1.347       .  A
C1093      C1094   1.388       .  A
C1093      H1096   1.082       .  S
C1094      C1095   1.382       .  A
C1094      C2667   1.475       .  S
C1095      H1097   1.082       .  S
N1098      N1099   1.324       .  A
N1098      C1102   1.348       .  A
N1099      C1100   1.342       .  A
C1100      C1101   1.382       .  A
C1100      H1103   1.082       .  S
C1101      C1102   1.385       .  A
C1101      C2744   1.474       .  S
C1102      H1104   1.082       .  S
N1105      N1106   1.320       .  A
N1105      C1109   1.349       .  A
N1105     Cu1113   2.078       .  S
N1106      C1107   1.340       .  A
N1106     Cu1112   2.060       .  S
C1107      C1108   1.382       .  A
C1107      H1110   1.082       .  S
C1108      C1109   1.387       .  A
C1108      C2683   1.473       .  S
C1109      H1111   1.082       .  S
Cu1112     N1115   2.060       .  S
Cu1113     N1123   2.080       .  S
Cu1114     N1116   2.092       .  S
Cu1114     N1122   2.093       .  S
N1115      N1116   1.321       .  A
N1115      C1119   1.341       .  A
N1116      C1117   1.350       .  A
C1117      C1118   1.390       .  A
C1117      H1120   1.082       .  S
C1118      C1119   1.382       .  A
C1118      C2648   1.479       .  S
C1119      H1121   1.081       .  S
N1122      N1123   1.325       .  A
N1122      C1126   1.348       .  A
N1123      C1124   1.345       .  A
C1124      C1125   1.384       .  A
C1124      H1127   1.082       .  S
C1125      C1126   1.386       .  A
C1125      C2699   1.479       .  S
C1126      H1128   1.082       .  S
N1129      N1130   1.320       .  A
N1129      C1133   1.350       .  A
N1129     Cu1137   2.078       .  S
N1130      C1131   1.340       .  A
N1130     Cu1136   2.064       .  S
C1131      C1132   1.383       .  A
C1131      H1134   1.082       .  S
C1132      C1133   1.388       .  A
C1132      C2632   1.476       .  S
C1133      H1135   1.082       .  S
Cu1136     N1139   2.065       .  S
Cu1137     N1147   2.080       .  S
Cu1138     N1140   2.099       .  S
Cu1138     N1146   2.100       .  S
N1139      N1140   1.322       .  A
N1139      C1143   1.343       .  A
N1140      C1141   1.350       .  A
C1141      C1142   1.391       .  A
C1141      H1144   1.082       .  S
C1142      C1143   1.383       .  A
C1142      C3243   1.482       .  S
C1143      H1145   1.081       .  S
N1146      N1147   1.325       .  A
N1146      C1150   1.350       .  A
N1147      C1148   1.344       .  A
C1148      C1149   1.383       .  A
C1148      H1151   1.082       .  S
C1149      C1150   1.389       .  A
C1149      C2616   1.482       .  S
C1150      H1152   1.082       .  S
N1153      N1154   1.319       .  A
N1153      C1157   1.350       .  A
N1153     Cu1161   2.078       .  S
N1154      C1155   1.339       .  A
N1154     Cu1160   2.060       .  S
C1155      C1156   1.384       .  A
C1155      H1158   1.081       .  S
C1156      C1157   1.389       .  A
C1156      C2635   1.478       .  S
C1157      H1159   1.082       .  S
Cu1160     N1163   2.060       .  S
Cu1161     N1171   2.080       .  S
Cu1162     N1164   2.103       .  S
Cu1162     N1170   2.104       .  S
N1163      N1164   1.321       .  A
N1163      C1167   1.340       .  A
N1164      C1165   1.354       .  A
C1165      C1166   1.393       .  A
C1165      H1168   1.082       .  S
C1166      C1167   1.380       .  A
C1166      C3323   1.482       .  S
C1167      H1169   1.082       .  S
N1170      N1171   1.326       .  A
N1170      C1174   1.350       .  A
N1171      C1172   1.344       .  A
C1172      C1173   1.382       .  A
C1172      H1175   1.082       .  S
C1173      C1174   1.387       .  A
C1173      C2600   1.478       .  S
C1174      H1176   1.082       .  S
N1177      N1178   1.319       .  A
N1177      C1181   1.347       .  A
N1177     Cu1185   2.070       .  S
N1178      C1179   1.342       .  A
N1178     Cu1184   2.063       .  S
C1179      C1180   1.386       .  A
C1179      H1182   1.081       .  S
C1180      C1181   1.386       .  A
C1180      C2584   1.476       .  S
C1181      H1183   1.082       .  S
Cu1184     N1187   2.064       .  S
Cu1185     N1195   2.073       .  S
Cu1186     N1188   2.110       .  S
Cu1186     N1194   2.111       .  S
N1187      N1188   1.323       .  A
N1187      C1191   1.341       .  A
N1188      C1189   1.354       .  A
C1189      C1190   1.393       .  A
C1189      H1192   1.082       .  S
C1190      C1191   1.380       .  A
C1190      C2555   1.481       .  S
C1191      H1193   1.082       .  S
N1194      N1195   1.325       .  A
N1194      C1198   1.353       .  A
N1195      C1196   1.342       .  A
C1196      C1197   1.381       .  A
C1196      H1199   1.082       .  S
C1197      C1198   1.391       .  A
C1197      C2568   1.483       .  S
C1198      H1200   1.082       .  S
N1201      N1202   1.319       .  A
N1201      C1205   1.350       .  A
N1201     Cu1209   2.080       .  S
N1202      C1203   1.338       .  A
N1202     Cu1208   2.051       .  S
C1203      C1204   1.380       .  A
C1203      H1206   1.082       .  S
C1204      C1205   1.390       .  A
C1204      C2587   1.474       .  S
C1205      H1207   1.082       .  S
Cu1208     N1211   2.051       .  S
Cu1209     N1219   2.082       .  S
Cu1210     N1212   2.089       .  S
Cu1210     N1218   2.091       .  S
N1211      N1212   1.320       .  A
N1211      C1215   1.340       .  A
N1212      C1213   1.349       .  A
C1213      C1214   1.390       .  A
C1213      H1216   1.082       .  S
C1214      C1215   1.381       .  A
C1214      C2536   1.476       .  S
C1215      H1217   1.081       .  S
N1218      N1219   1.325       .  A
N1218      C1222   1.349       .  A
N1219      C1220   1.344       .  A
C1220      C1221   1.382       .  A
C1220      H1223   1.082       .  S
C1221      C1222   1.386       .  A
C1221      C2603   1.477       .  S
C1222      H1224   1.082       .  S
N1225      N1226   1.319       .  A
N1225      C1229   1.349       .  A
N1225     Cu1233   2.080       .  S
N1226      C1227   1.341       .  A
N1226     Cu1232   2.055       .  S
C1227      C1228   1.382       .  A
C1227      H1230   1.082       .  S
C1228      C1229   1.389       .  A
C1228      C2520   1.476       .  S
C1229      H1231   1.082       .  S
Cu1232     N1235   2.055       .  S
Cu1233     N1243   2.083       .  S
Cu1234     N1236   2.116       .  S
Cu1234     N1242   2.117       .  S
N1235      N1236   1.322       .  A
N1235      C1239   1.341       .  A
N1236      C1237   1.354       .  A
C1237      C1238   1.395       .  A
C1237      H1240   1.082       .  S
C1238      C1239   1.378       .  A
C1238      C3864   1.482       .  S
C1239      H1241   1.082       .  S
N1242      N1243   1.326       .  A
N1242      C1246   1.354       .  A
N1243      C1244   1.344       .  A
C1244      C1245   1.382       .  A
C1244      H1247   1.082       .  S
C1245      C1246   1.392       .  A
C1245      C2504   1.486       .  S
C1246      H1248   1.082       .  S
N1249      N1250   1.320       .  A
N1249      C1253   1.348       .  A
N1249     Cu1257   2.083       .  S
N1250      C1251   1.342       .  A
N1250     Cu1256   2.060       .  S
C1251      C1252   1.384       .  A
C1251      H1254   1.081       .  S
C1252      C1253   1.389       .  A
C1252      C2523   1.478       .  S
C1253      H1255   1.082       .  S
Cu1256     N1259   2.060       .  S
Cu1257     N1267   2.084       .  S
Cu1258     N1260   2.101       .  S
Cu1258     N1266   2.102       .  S
N1259      N1260   1.322       .  A
N1259      C1263   1.342       .  A
N1260      C1261   1.350       .  A
C1261      C1262   1.391       .  A
C1261      H1264   1.082       .  S
C1262      C1263   1.381       .  A
C1262      C3723   1.481       .  S
C1263      H1265   1.081       .  S
N1266      N1267   1.325       .  A
N1266      C1270   1.351       .  A
N1267      C1268   1.344       .  A
C1268      C1269   1.384       .  A
C1268      H1271   1.082       .  S
C1269      C1270   1.389       .  A
C1269      C2571   1.484       .  S
C1270      H1272   1.082       .  S
N1273      N1274   1.318       .  A
N1273      C1277   1.349       .  A
N1273     Cu1281   2.074       .  S
N1274      C1275   1.339       .  A
N1274     Cu1280   2.052       .  S
C1275      C1276   1.383       .  A
C1275      H1278   1.081       .  S
C1276      C1277   1.388       .  A
C1276      C2491   1.475       .  S
C1277      H1279   1.082       .  S
Cu1280     N1283   2.053       .  S
Cu1281     N1291   2.077       .  S
Cu1282     N1284   2.111       .  S
Cu1282     N1290   2.112       .  S
N1283      N1284   1.322       .  A
N1283      C1287   1.339       .  A
N1284      C1285   1.355       .  A
C1285      C1286   1.395       .  A
C1285      H1288   1.082       .  S
C1286      C1287   1.378       .  A
C1286      C2472   1.482       .  S
C1287      H1289   1.082       .  S
N1290      N1291   1.326       .  A
N1290      C1294   1.352       .  A
N1291      C1292   1.343       .  A
C1292      C1293   1.381       .  A
C1292      H1295   1.082       .  S
C1293      C1294   1.389       .  A
C1293      C2619   1.480       .  S
C1294      H1296   1.082       .  S
N1297      N1298   1.319       .  A
N1297      C1301   1.351       .  A
N1297     Cu1305   2.082       .  S
N1298      C1299   1.338       .  A
N1298     Cu1304   2.049       .  S
C1299      C1300   1.379       .  A
C1299      H1302   1.082       .  S
C1300      C1301   1.389       .  A
C1300      C2488   1.472       .  S
C1301      H1303   1.082       .  S
Cu1304     N1307   2.049       .  S
Cu1305     N1315   2.086       .  S
Cu1306     N1308   2.110       .  S
Cu1306     N1314   2.112       .  S
N1307      N1308   1.321       .  A
N1307      C1311   1.340       .  A
N1308      C1309   1.353       .  A
C1309      C1310   1.395       .  A
C1309      H1312   1.082       .  S
C1310      C1311   1.379       .  A
C1310      C2456   1.482       .  S
C1311      H1313   1.082       .  S
N1314      N1315   1.327       .  A
N1314      C1318   1.351       .  A
N1315      C1316   1.345       .  A
C1316      C1317   1.384       .  A
C1316      H1319   1.082       .  S
C1317      C1318   1.389       .  A
C1317      C2507   1.485       .  S
C1318      H1320   1.082       .  S
C1321      N1322   1.362       .  A
C1321      N1326   1.358   1_655  A
C1321      C2440   1.485       .  S
N1322      C1323   1.365       .  A
C1323      N1324   1.364       .  A
C1323      C2408   1.488       .  S
N1324      C1325   1.363   1_655  A
C1325      N1326   1.358       .  A
C1325      C2427   1.482       .  S
N1327      N1328   1.320       .  A
N1327      C1331   1.338       .  A
N1327     Cu1335   2.047       .  S
N1328      C1329   1.353       .  A
N1328     Cu1334   2.100       .  S
C1329      C1330   1.394       .  A
C1329      H1332   1.082       .  S
C1330      C1331   1.380       .  A
C1330      C2664   1.480       .  S
C1331      H1333   1.081       .  S
Cu1334     N1337   2.103       .  S
Cu1335     N1345   2.048   1_655  S
Cu1336     N1338   2.107       .  S
Cu1336     N1344   2.104       .  S
N1337      N1338   1.328   1_655  A
N1337      C1341   1.350       .  A
N1338      C1339   1.348       .  A
C1339      C1340   1.386   1_455  A
C1339      H1342   1.082       .  S
C1340      C1341   1.387       .  A
C1340      C2443   1.486       .  S
C1341      H1343   1.082       .  S
N1344      N1345   1.319       .  A
N1344      C1348   1.354       .  A
N1345      C1346   1.340       .  A
C1346      C1347   1.380       .  A
C1346      H1349   1.082       .  S
C1347      C1348   1.395       .  A
C1347      C4056   1.483       .  S
C1348      H1350   1.082       .  S
C1351      N1352   1.361       .  A
C1351      N1356   1.366   1_556  A
C1351      C2392   1.482       .  S
N1352      C1353   1.358       .  A
C1353      N1354   1.356       .  A
C1353      C2376   1.479       .  S
N1354      C1355   1.358   1_556  A
C1355      N1356   1.365       .  A
C1355      C2424   1.482       .  S
N1357      N1358   1.319       .  A
N1357      C1361   1.338       .  A
N1357     Cu1365   2.043   1_556  S
N1358      C1359   1.350       .  A
N1358     Cu1364   2.089       .  S
C1359      C1360   1.391       .  A
C1359      H1362   1.082       .  S
C1360      C1361   1.380       .  A
C1360      C2539   1.476       .  S
C1361      H1363   1.081       .  S
Cu1364     N1367   2.092   1_556  S
Cu1365     N1375   2.044       .  S
Cu1366     N1368   2.104       .  S
Cu1366     N1374   2.101       .  S
N1367      N1368   1.327       .  A
N1367      C1371   1.347   1_554  A
N1368      C1369   1.349       .  A
C1369      C1370   1.387       .  A
C1369      H1372   1.082       .  S
C1370      C1371   1.385   1_554  A
C1370      C2395   1.484       .  S
C1371      H1373   1.082       .  S
N1374      N1375   1.319       .  A
N1374      C1378   1.353       .  A
N1375      C1376   1.337       .  A
C1376      C1377   1.380       .  A
C1376      H1379   1.081       .  S
C1377      C1378   1.394       .  A
C1377      C4040   1.481       .  S
C1378      H1380   1.082       .  S
C1381      N1382   1.359       .  A
C1381      N1386   1.358       .  A
C1381      C2360   1.485       .  S
N1382      C1383   1.362       .  A
C1383      N1384   1.367       .  A
C1383      C2347   1.487       .  S
N1384      C1385   1.366       .  A
C1385      N1386   1.362       .  A
C1385      C2411   1.488   1_545  S
N1387      N1388   1.320       .  A
N1387      C1391   1.341       .  A
N1387     Cu1395   2.048   1_565  S
N1388      C1389   1.350       .  A
N1388     Cu1394   2.098   1_565  S
C1389      C1390   1.392       .  A
C1389      H1392   1.082       .  S
C1390      C1391   1.381       .  A
C1390      C2651   1.480       .  S
C1391      H1393   1.082       .  S
Cu1394     N1397   2.101       .  S
Cu1395     N1405   2.047       .  S
Cu1396     N1398   2.102       .  S
Cu1396     N1404   2.099       .  S
N1397      N1398   1.327       .  A
N1397      C1401   1.350       .  A
N1398      C1399   1.348       .  A
C1399      C1400   1.386       .  A
C1399      H1402   1.082       .  S
C1400      C1401   1.388       .  A
C1400      C2363   1.486       .  S
C1401      H1403   1.082   1_545  S
N1404      N1405   1.320       .  A
N1404      C1408   1.353       .  A
N1405      C1406   1.338       .  A
C1406      C1407   1.380       .  A
C1406      H1409   1.081       .  S
C1407      C1408   1.394       .  A
C1407      C2331   1.481       .  S
C1408      H1410   1.082       .  S
C1411      N1412   1.362       .  A
C1411      N1416   1.363   1_556  A
C1411      C2312   1.486       .  S
N1412      C1413   1.361       .  A
C1413      N1414   1.361       .  A
C1413      C2296   1.482       .  S
N1414      C1415   1.360   1_556  A
C1415      N1416   1.363       .  A
C1415      C2344   1.485       .  S
N1417      N1418   1.319       .  A
N1417      C1421   1.338       .  A
N1417     Cu1425   2.043       .  S
N1418      C1419   1.352       .  A
N1418     Cu1424   2.095       .  S
C1419      C1420   1.393       .  A
C1419      H1422   1.081       .  S
C1420      C1421   1.379       .  A
C1420      C2856   1.478       .  S
C1421      H1423   1.082       .  S
Cu1424     N1427   2.100       .  S
Cu1425     N1435   2.043   1_556  S
Cu1426     N1428   2.109       .  S
Cu1426     N1434   2.105       .  S
N1427      N1428   1.328   1_556  A
N1427      C1431   1.348       .  A
N1428      C1429   1.350       .  A
C1429      C1430   1.388   1_554  A
C1429      H1432   1.082       .  S
C1430      C1431   1.385       .  A
C1430      C2315   1.486       .  S
C1431      H1433   1.082       .  S
N1434      N1435   1.319       .  A
N1434      C1438   1.355       .  A
N1435      C1436   1.336       .  A
C1436      C1437   1.380       .  A
C1436      H1439   1.081       .  S
C1437      C1438   1.396       .  A
C1437      C2280   1.483       .  S
C1438      H1440   1.082       .  S
C1441      N1442   1.362   1_655  A
C1441      N1446   1.360       .  A
C1441      C2264   1.481       .  S
N1442      C1443   1.362       .  A
C1443      N1444   1.361       .  A
C1443      C2248   1.481       .  S
N1444      C1445   1.360   1_455  A
C1445      N1446   1.359       .  A
C1445      C2299   1.481       .  S
N1447      N1448   1.320       .  A
N1447      C1451   1.339       .  A
N1447     Cu1455   2.047       .  S
N1448      C1449   1.351       .  A
N1448     Cu1454   2.094       .  S
C1449      C1450   1.392       .  A
C1449      H1452   1.082       .  S
C1450      C1451   1.380       .  A
C1450      C3531   1.478       .  S
C1451      H1453   1.082       .  S
Cu1454     N1457   2.097       .  S
Cu1455     N1465   2.046   1_455  S
Cu1456     N1458   2.093       .  S
Cu1456     N1464   2.090       .  S
N1457      N1458   1.326   1_455  A
N1457      C1461   1.347       .  A
N1458      C1459   1.348       .  A
C1459      C1460   1.386   1_655  A
C1459      H1462   1.082       .  S
C1460      C1461   1.385       .  A
C1460      C2267   1.482       .  S
C1461      H1463   1.082       .  S
N1464      N1465   1.320       .  A
N1464      C1468   1.352       .  A
N1465      C1466   1.337       .  A
C1466      C1467   1.379       .  A
C1466      H1469   1.082       .  S
C1467      C1468   1.392       .  A
C1467      C2843   1.476       .  S
C1468      H1470   1.082       .  S
C1471      N1472   1.364       .  A
C1471      N1476   1.363       .  A
C1471      C2235   1.484       .  S
N1472      C1473   1.362       .  A
C1473      N1474   1.358       .  A
C1473      C2379   1.481   1_545  S
N1474      C1475   1.357       .  A
C1475      N1476   1.361       .  A
C1475      C2251   1.480       .  S
N1477      N1478   1.319       .  A
N1477      C1481   1.339       .  A
N1477     Cu1485   2.046   1_565  S
N1478      C1479   1.353       .  A
N1478     Cu1484   2.103   1_565  S
C1479      C1480   1.395       .  A
C1479      H1482   1.082       .  S
C1480      C1481   1.379       .  A
C1480      C2552   1.482       .  S
C1481      H1483   1.082       .  S
Cu1484     N1487   2.105       .  S
Cu1485     N1495   2.047       .  S
Cu1486     N1488   2.104       .  S
Cu1486     N1494   2.101       .  S
N1487      N1488   1.327       .  A
N1487      C1491   1.349       .  A
N1488      C1489   1.350       .  A
C1489      C1490   1.388       .  A
C1489      H1492   1.082       .  S
C1490      C1491   1.387       .  A
C1490      C2232   1.487       .  S
C1491      H1493   1.082       .  S
N1494      N1495   1.320       .  A
N1494      C1498   1.354       .  A
N1495      C1496   1.338       .  A
C1496      C1497   1.378       .  A
C1496      H1499   1.082       .  S
C1497      C1498   1.394       .  A
C1497      C3496   1.479       .  S
C1498      H1500   1.082       .  S
N1501      N1502   1.318       .  A
N1501      C1505   1.347       .  A
N1501     Cu1509   2.069       .  S
N1502      C1503   1.340       .  A
N1502     Cu1508   2.051       .  S
C1503      C1504   1.382       .  A
C1503      H1506   1.082       .  S
C1504      C1505   1.388       .  A
C1504      C2216   1.473       .  S
C1505      H1507   1.082       .  S
Cu1508     N1511   2.051       .  S
Cu1509     N1519   2.071       .  S
Cu1510     N1512   2.100       .  S
Cu1510     N1518   2.102       .  S
N1511      N1512   1.321       .  A
N1511      C1515   1.337       .  A
N1512      C1513   1.353       .  A
C1513      C1514   1.393       .  A
C1513      H1516   1.082       .  S
C1514      C1515   1.378       .  A
C1514      C3592   1.478       .  S
C1515      H1517   1.082       .  S
N1518      N1519   1.325       .  A
N1518      C1522   1.352       .  A
N1519      C1520   1.341       .  A
C1520      C1521   1.379       .  A
C1520      H1523   1.082       .  S
C1521      C1522   1.389       .  A
C1521      C2200   1.477       .  S
C1522      H1524   1.082       .  S
N1525      N1526   1.319       .  A
N1525      C1529   1.348       .  A
N1525     Cu1533   2.078       .  S
N1526      C1527   1.341       .  A
N1526     Cu1532   2.057       .  S
C1527      C1528   1.383       .  A
C1527      H1530   1.081       .  S
C1528      C1529   1.387       .  A
C1528      C2219   1.474       .  S
C1529      H1531   1.082       .  S
Cu1532     N1535   2.057       .  S
Cu1533     N1543   2.080       .  S
Cu1534     N1536   2.105       .  S
Cu1534     N1542   2.106       .  S
N1535      N1536   1.322       .  A
N1535      C1539   1.342       .  A
N1536      C1537   1.351       .  A
C1537      C1538   1.393       .  A
C1537      H1540   1.082       .  S
C1538      C1539   1.380       .  A
C1538      C3771   1.480       .  S
C1539      H1541   1.082       .  S
N1542      N1543   1.325       .  A
N1542      C1546   1.351       .  A
N1543      C1544   1.344       .  A
C1544      C1545   1.383       .  A
C1544      H1547   1.082       .  S
C1545      C1546   1.389       .  A
C1545      C2187   1.483       .  S
C1546      H1548   1.082       .  S
N1549      N1550   1.319       .  A
N1549      C1553   1.349       .  A
N1549     Cu1557   2.080       .  S
N1550      C1551   1.340       .  A
N1550     Cu1556   2.057       .  S
C1551      C1552   1.383       .  A
C1551      H1554   1.081       .  S
C1552      C1553   1.389       .  A
C1552      C2168   1.478       .  S
C1553      H1555   1.082       .  S
Cu1556     N1559   2.057       .  S
Cu1557     N1567   2.082       .  S
Cu1558     N1560   2.100       .  S
Cu1558     N1566   2.100       .  S
N1559      N1560   1.322       .  A
N1559      C1563   1.342       .  A
N1560      C1561   1.350       .  A
C1561      C1562   1.391       .  A
C1561      H1564   1.082       .  S
C1562      C1563   1.381       .  A
C1562      C2283   1.479       .  S
C1563      H1565   1.081       .  S
N1566      N1567   1.325       .  A
N1566      C1570   1.351       .  A
N1567      C1568   1.344       .  A
C1568      C1569   1.382       .  A
C1568      H1571   1.082       .  S
C1569      C1570   1.388       .  A
C1569      C2152   1.480       .  S
C1570      H1572   1.082       .  S
N1573      N1574   1.319       .  A
N1573      C1577   1.351       .  A
N1573     Cu1581   2.088       .  S
N1574      C1575   1.339       .  A
N1574     Cu1580   2.055       .  S
C1575      C1576   1.381       .  A
C1575      H1578   1.082       .  S
C1576      C1577   1.391       .  A
C1576      C2171   1.478       .  S
C1577      H1579   1.082       .  S
Cu1580     N1583   2.055       .  S
Cu1581     N1591   2.091       .  S
Cu1582     N1584   2.097       .  S
Cu1582     N1590   2.098       .  S
N1583      N1584   1.321       .  A
N1583      C1587   1.341       .  A
N1584      C1585   1.350       .  A
C1585      C1586   1.391       .  A
C1585      H1588   1.082       .  S
C1586      C1587   1.380       .  A
C1586      C2328   1.478       .  S
C1587      H1589   1.082       .  S
N1590      N1591   1.326       .  A
N1590      C1594   1.350       .  A
N1591      C1592   1.345       .  A
C1592      C1593   1.384       .  A
C1592      H1595   1.082       .  S
C1593      C1594   1.387       .  A
C1593      C2184   1.482       .  S
C1594      H1596   1.082       .  S
N1597      N1598   1.319       .  A
N1597      C1601   1.349       .  A
N1597     Cu1605   2.074       .  S
N1598      C1599   1.340       .  A
N1598     Cu1604   2.060       .  S
C1599      C1600   1.383       .  A
C1599      H1602   1.082       .  S
C1600      C1601   1.387       .  A
C1600      C2139   1.474       .  S
C1601      H1603   1.082       .  S
Cu1604     N1607   2.060       .  S
Cu1605     N1615   2.076       .  S
Cu1606     N1608   2.089       .  S
Cu1606     N1614   2.090       .  S
N1607      N1608   1.321       .  A
N1607      C1611   1.341       .  A
N1608      C1609   1.349       .  A
C1609      C1610   1.390       .  A
C1609      H1612   1.082       .  S
C1610      C1611   1.382       .  A
C1610      C3083   1.478       .  S
C1611      H1613   1.081       .  S
N1614      N1615   1.325       .  A
N1614      C1618   1.348       .  A
N1615      C1616   1.342       .  A
C1616      C1617   1.383       .  A
C1616      H1619   1.081       .  S
C1617      C1618   1.386       .  A
C1617      C2123   1.477       .  S
C1618      H1620   1.082       .  S
N1621      N1622   1.319       .  A
N1621      C1625   1.350       .  A
N1621     Cu1629   2.081       .  S
N1622      C1623   1.339       .  A
N1622     Cu1628   2.055       .  S
C1623      C1624   1.381       .  A
C1623      H1626   1.082       .  S
C1624      C1625   1.390       .  A
C1624      C2136   1.476       .  S
C1625      H1627   1.082       .  S
Cu1628     N1631   2.055       .  S
Cu1629     N1639   2.084       .  S
Cu1630     N1632   2.093       .  S
Cu1630     N1638   2.095       .  S
N1631      N1632   1.321       .  A
N1631      C1635   1.341       .  A
N1632      C1633   1.351       .  A
C1633      C1634   1.391       .  A
C1633      H1636   1.082       .  S
C1634      C1635   1.379       .  A
C1634      C3147   1.476       .  S
C1635      H1637   1.082       .  S
N1638      N1639   1.326       .  A
N1638      C1642   1.349       .  A
N1639      C1640   1.345       .  A
C1640      C1641   1.383       .  A
C1640      H1643   1.082       .  S
C1641      C1642   1.385       .  A
C1641      C2155   1.477       .  S
C1642      H1644   1.082       .  S
N1645      N1646   1.319       .  A
N1645      C1649   1.348       .  A
N1645     Cu1653   2.071       .  S
N1646      C1647   1.339       .  A
N1646     Cu1652   2.055       .  S
C1647      C1648   1.380       .  A
C1647      H1650   1.082       .  S
C1648      C1649   1.386       .  A
C1648      C2104   1.469       .  S
C1649      H1651   1.082       .  S
Cu1652     N1655   2.055       .  S
Cu1653     N1663   2.073       .  S
Cu1654     N1656   2.096       .  S
Cu1654     N1662   2.097       .  S
N1655      N1656   1.321       .  A
N1655      C1659   1.341       .  A
N1656      C1657   1.350       .  A
C1657      C1658   1.391       .  A
C1657      H1660   1.082       .  S
C1658      C1659   1.380       .  A
C1658      C2088   1.478       .  S
C1659      H1661   1.081       .  S
N1662      N1663   1.325       .  A
N1662      C1666   1.350       .  A
N1663      C1664   1.342       .  A
C1664      C1665   1.380       .  A
C1664      H1667   1.082       .  S
C1665      C1666   1.387       .  A
C1665      C2120   1.476       .  S
C1666      H1668   1.082       .  S
N1669      N1670   1.320       .  A
N1669      C1673   1.349       .  A
N1669     Cu1677   2.079       .  S
N1670      C1671   1.339       .  A
N1670     Cu1676   2.054       .  S
C1671      C1672   1.382       .  A
C1671      H1674   1.081       .  S
C1672      C1673   1.388       .  A
C1672      C2107   1.475       .  S
C1673      H1675   1.082       .  S
Cu1676     N1679   2.055       .  S
Cu1677     N1687   2.081       .  S
Cu1678     N1680   2.092       .  S
Cu1678     N1686   2.093       .  S
N1679      N1680   1.321       .  A
N1679      C1683   1.342       .  A
N1680      C1681   1.349       .  A
C1681      C1682   1.390       .  A
C1681      H1684   1.082       .  S
C1682      C1683   1.380       .  A
C1682      C2072   1.476       .  S
C1683      H1685   1.082       .  S
N1686      N1687   1.325       .  A
N1686      C1690   1.349       .  A
N1687      C1688   1.344       .  A
C1688      C1689   1.384       .  A
C1688      H1691   1.082       .  S
C1689      C1690   1.386       .  A
C1689      C2203   1.479       .  S
C1690      H1692   1.082       .  S
N1693      N1694   1.320       .  A
N1693      C1697   1.339       .  A
N1693     Cu1701   2.051       .  S
N1694      C1695   1.353       .  A
N1694     Cu1700   2.102       .  S
C1695      C1696   1.394       .  A
C1695      H1698   1.082       .  S
C1696      C1697   1.381       .  A
C1696      C3976   1.483       .  S
C1697      H1699   1.081       .  S
Cu1700     N1703   2.105       .  S
Cu1701     N1711   2.051   1_455  S
Cu1702     N1704   2.102       .  S
Cu1702     N1710   2.099       .  S
N1703      N1704   1.327   1_455  A
N1703      C1707   1.351       .  A
N1704      C1705   1.347       .  A
C1705      C1706   1.386   1_655  A
C1705      H1708   1.082       .  S
C1706      C1707   1.388       .  A
C1706      C2059   1.486       .  S
C1707      H1709   1.082       .  S
N1710      N1711   1.320       .  A
N1710      C1714   1.353       .  A
N1711      C1712   1.340       .  A
C1712      C1713   1.380       .  A
C1712      H1715   1.082       .  S
C1713      C1714   1.394       .  A
C1713      C2731   1.480       .  S
C1714      H1716   1.082       .  S
C1717      N1718   1.359   1_655  A
C1717      N1722   1.360       .  A
C1717      C2056   1.483   1_655  S
N1718      C1719   1.362       .  A
C1719      N1720   1.363   1_455  A
C1719      C2040   1.485       .  S
N1720      C1721   1.363       .  A
C1721      N1722   1.362       .  A
C1721      C2024   1.484       .  S
N1723      N1724   1.318       .  A
N1723      C1727   1.338       .  A
N1723     Cu1731   2.043       .  S
N1724      C1725   1.352       .  A
N1724     Cu1730   2.092       .  S
C1725      C1726   1.393       .  A
C1725      H1728   1.082       .  S
C1726      C1727   1.380       .  A
C1726      C2091   1.479       .  S
C1727      H1729   1.081       .  S
Cu1730     N1733   2.095       .  S
Cu1731     N1741   2.042       .  S
Cu1732     N1734   2.100       .  S
Cu1732     N1740   2.097       .  S
N1733      N1734   1.328       .  A
N1733      C1737   1.346       .  A
N1734      C1735   1.349       .  A
C1735      C1736   1.386       .  A
C1735      H1738   1.082       .  S
C1736      C1737   1.383       .  A
C1736      C2008   1.480       .  S
C1737      H1739   1.082       .  S
N1740      N1741   1.319       .  A
N1740      C1744   1.354       .  A
N1741      C1742   1.336       .  A
C1742      C1743   1.380       .  A
C1742      H1745   1.081       .  S
C1743      C1744   1.394       .  A
C1743      C2763   1.481       .  S
C1744      H1746   1.082       .  S
C1747      N1748   1.357       .  A
C1747      N1752   1.360       .  A
C1747      C2011   1.477       .  S
N1748      C1749   1.357       .  A
C1749      N1750   1.362       .  A
C1749      C1995   1.478       .  S
N1750      C1751   1.363       .  A
C1751      N1752   1.362       .  A
C1751      C2027   1.483       .  S
C1753      N1754   1.362       .  A
C1753      N1758   1.363       .  A
C1753      C1976   1.479       .  S
N1754      C1755   1.360       .  A
C1755      N1756   1.358       .  A
C1755      C1992   1.478       .  S
N1756      C1757   1.358       .  A
C1757      N1758   1.360       .  A
C1757      C1960   1.481       .  S
N1759      N1760   1.321       .  A
N1759      C1763   1.338       .  A
N1759     Cu1767   2.048       .  S
N1760      C1761   1.353       .  A
N1760     Cu1766   2.100       .  S
C1761      C1762   1.393       .  A
C1761      H1764   1.082       .  S
C1762      C1763   1.379       .  A
C1762      C2075   1.479       .  S
C1763      H1765   1.082       .  S
Cu1766     N1769   2.102       .  S
Cu1767     N1777   2.048       .  S
Cu1768     N1770   2.084       .  S
Cu1768     N1776   2.080       .  S
N1769      N1770   1.326       .  A
N1769      C1773   1.350       .  A
N1770      C1771   1.344       .  A
C1771      C1772   1.382       .  A
C1771      H1774   1.082       .  S
C1772      C1773   1.388       .  A
C1772      C1979   1.480       .  S
C1773      H1775   1.082       .  S
N1776      N1777   1.319       .  A
N1776      C1780   1.350       .  A
N1777      C1778   1.339       .  A
C1778      C1779   1.380       .  A
C1778      H1781   1.082       .  S
C1779      C1780   1.391       .  A
C1779      C2923   1.475       .  S
C1780      H1782   1.082       .  S
N1783      N1784   1.320       .  A
N1783      C1787   1.337       .  A
N1783     Cu1791   2.041   1_455  S
N1784      C1785   1.355       .  A
N1784     Cu1790   2.108       .  S
C1785      C1786   1.396       .  A
C1785      H1788   1.082       .  S
C1786      C1787   1.376       .  A
C1786      C3435   1.479       .  S
C1787      H1789   1.082       .  S
Cu1790     N1793   2.112       .  S
Cu1791     N1801   2.041       .  S
Cu1792     N1794   2.101       .  S
Cu1792     N1800   2.097       .  S
N1793      N1794   1.328   1_455  A
N1793      C1797   1.351       .  A
N1794      C1795   1.347       .  A
C1795      C1796   1.385   1_655  A
C1795      H1798   1.082       .  S
C1796      C1797   1.388       .  A
C1796      C1944   1.486       .  S
C1797      H1799   1.082       .  S
N1800      N1801   1.318       .  A
N1800      C1804   1.353       .  A
N1801      C1802   1.338       .  A
C1802      C1803   1.381       .  A
C1802      H1805   1.081       .  S
C1803      C1804   1.394       .  A
C1803      C2891   1.481       .  S
C1804      H1806   1.082       .  S
C1807      N1808   1.363       .  A
C1807      N1812   1.365   1_655  A
C1807      C1947   1.484       .  S
N1808      C1809   1.361       .  A
C1809      N1810   1.360       .  A
C1809      C1963   1.484       .  S
N1810      C1811   1.360   1_655  A
C1811      N1812   1.363       .  A
C1811      C1928   1.487       .  S
N1813      N1814   1.321       .  A
N1813      C1817   1.339       .  A
N1813     Cu1821   2.055       .  S
N1814      C1815   1.354       .  A
N1814     Cu1820   2.105       .  S
C1815      C1816   1.394       .  A
C1815      H1818   1.082       .  S
C1816      C1817   1.379       .  A
C1816      C2459   1.481       .  S
C1817      H1819   1.082       .  S
Cu1820     N1823   2.108       .  S
Cu1821     N1831   2.055       .  S
Cu1822     N1824   2.104       .  S
Cu1822     N1830   2.101       .  S
N1823      N1824   1.327       .  A
N1823      C1827   1.351       .  A
N1824      C1825   1.348       .  A
C1825      C1826   1.386       .  A
C1825      H1828   1.082       .  S
C1826      C1827   1.389       .  A
C1826      C1912   1.489       .  S
C1827      H1829   1.082       .  S
N1830      N1831   1.319       .  A
N1830      C1834   1.353       .  A
N1831      C1832   1.340       .  A
C1832      C1833   1.383       .  A
C1832      H1835   1.081       .  S
C1833      C1834   1.394       .  A
C1833      C3995   1.485       .  S
C1834      H1836   1.082       .  S
C1837      N1838   1.361       .  A
C1837      N1842   1.361       .  A
C1837      C1915   1.487       .  S
N1838      C1839   1.363       .  A
C1839      N1840   1.364       .  A
C1839      C2043   1.486       .  S
N1840      C1841   1.364       .  A
C1841      N1842   1.363       .  A
C1841      C1899   1.488       .  S
N1843      N1844   1.327       .  A
N1843      C1847   1.353       .  A
N1843     Cu1851   2.118       .  S
N1844      C1845   1.348       .  A
N1844     Cu1850   2.097       .  S
C1845      C1846   1.386       .  A
C1845      H1848   1.082       .  S
C1846      C1847   1.392       .  A
C1846      C1883   1.492       .  S
C1847      H1849   1.082       .  S
Cu1850     N1853   2.095       .  S
Cu1851     N1861   2.115       .  S
Cu1852     N1854   2.054       .  S
Cu1852     N1860   2.053       .  S
N1853      N1854   1.319       .  A
N1853      C1857   1.351       .  A
N1854      C1855   1.341       .  A
C1855      C1856   1.383       .  A
C1855      H1858   1.081       .  S
C1856      C1857   1.392       .  A
C1856      C3448   1.481       .  S
C1857      H1859   1.082       .  S
N1860      N1861   1.321       .  A
N1860      C1864   1.339       .  A
N1861      C1862   1.355       .  A
C1862      C1863   1.396       .  A
C1862      H1865   1.082       .  S
C1863      C1864   1.379       .  A
C1863      C2475   1.484       .  S
C1864      H1866   1.082       .  S
C1867      N1868   1.364       .  A
C1867      N1872   1.362       .  A
C1867      C1880   1.488       .  S
N1868      C1869   1.364       .  A
C1869      N1870   1.364       .  A
C1869      C1931   1.489       .  S
N1870      C1871   1.363       .  A
C1871      N1872   1.362       .  A
C1871      C1896   1.489       .  S
C1873      C1878   1.386       .  A
C1873      C1874   1.408       .  A
C1873      S1879   1.712       .  A
C1874      C1875   1.407       .  A
C1874      H1885   1.083       .  S
C1875      C1884   1.380       .  A
C1875      C1876   1.386       .  A
C1876      C1877   1.408       .  A
C1876      S1882   1.712       .  A
C1877      C1878   1.408       .  A
C1877      H1886   1.083       .  S
C1878      C1881   1.380       .  A
S1879      C1880   1.727       .  A
C1880      C1881   1.392       .  A
C1881      H1887   1.083       .  S
S1882      C1883   1.729       .  A
C1883      C1884   1.392       .  A
C1884      H1888   1.082       .  S
C1889      C1894   1.386       .  A
C1889      C1890   1.408       .  A
C1889      S1895   1.714       .  A
C1890      C1891   1.408       .  A
C1890      H1901   1.083       .  S
C1891      C1900   1.380       .  A
C1891      C1892   1.386       .  A
C1892      C1893   1.406       .  A
C1892      S1898   1.710       .  A
C1893      C1894   1.406       .  A
C1893      H1902   1.083       .  S
C1894      C1897   1.377       .  A
S1895      C1896   1.729       .  A
C1896      C1897   1.391       .  A
C1897      H1903   1.083       .  S
S1898      C1899   1.727       .  A
C1899      C1900   1.393       .  A
C1900      H1904   1.083       .  S
C1905      C1910   1.386       .  A
C1905      C1906   1.406       .  A
C1905      S1911   1.711       .  A
C1906      C1907   1.406       .  A
C1906      H1917   1.083       .  S
C1907      C1916   1.378       .  A
C1907      C1908   1.386       .  A
C1908      C1909   1.408       .  A
C1908      S1914   1.713       .  A
C1909      C1910   1.408       .  A
C1909      H1918   1.083       .  S
C1910      C1913   1.380       .  A
S1911      C1912   1.727       .  A
C1912      C1913   1.392       .  A
C1913      H1919   1.083       .  S
S1914      C1915   1.727       .  A
C1915      C1916   1.391       .  A
C1916      H1920   1.083       .  S
C1921      C1926   1.386       .  A
C1921      C1922   1.406       .  A
C1921      S1927   1.710       .  A
C1922      C1923   1.406       .  A
C1922      H1933   1.083       .  S
C1923      C1932   1.378       .  A
C1923      C1924   1.386       .  A
C1924      C1925   1.408       .  A
C1924      S1930   1.714       .  A
C1925      C1926   1.408       .  A
C1925      H1934   1.083       .  S
C1926      C1929   1.380       .  A
S1927      C1928   1.727       .  A
C1928      C1929   1.392       .  A
C1929      H1935   1.083       .  S
S1930      C1931   1.728       .  A
C1931      C1932   1.392       .  A
C1932      H1936   1.083       .  S
C1937      C1942   1.386   1_455  A
C1937      C1938   1.406       .  A
C1937      S1943   1.713       .  A
C1938      C1939   1.406       .  A
C1938      H1949   1.083       .  S
C1939      C1948   1.376       .  A
C1939      C1940   1.386   1_455  A
C1940      C1941   1.406       .  A
C1940      S1946   1.712       .  A
C1941      C1942   1.406       .  A
C1941      H1950   1.083       .  S
C1942      C1945   1.376       .  A
S1943      C1944   1.726       .  A
C1944      C1945   1.391   1_455  A
C1945      H1951   1.083       .  S
S1946      C1947   1.727       .  A
C1947      C1948   1.390   1_655  A
C1948      H1952   1.083       .  S
C1953      C1958   1.386       .  A
C1953      C1954   1.407       .  A
C1953      S1959   1.714       .  A
C1954      C1955   1.407       .  A
C1954      H1965   1.083       .  S
C1955      C1964   1.378       .  A
C1955      C1956   1.386       .  A
C1956      C1957   1.402       .  A
C1956      S1962   1.707       .  A
C1957      C1958   1.403       .  A
C1957      H1966   1.083       .  S
C1958      C1961   1.371       .  A
S1959      C1960   1.726       .  A
C1960      C1961   1.389       .  A
C1961      H1967   1.083       .  S
S1962      C1963   1.725       .  A
C1963      C1964   1.392       .  A
C1964      H1968   1.083       .  S
C1969      C1974   1.386       .  A
C1969      C1970   1.405       .  A
C1969      S1975   1.710       .  A
C1970      C1971   1.405       .  A
C1970      H1981   1.083       .  S
C1971      C1980   1.376       .  A
C1971      C1972   1.387       .  A
C1972      C1973   1.402       .  A
C1972      S1978   1.706       .  A
C1973      C1974   1.403       .  A
C1973      H1982   1.083       .  S
C1974      C1977   1.373       .  A
S1975      C1976   1.726       .  A
C1976      C1977   1.388       .  A
C1977      H1983   1.083       .  S
S1978      C1979   1.725       .  A
C1979      C1980   1.389       .  A
C1980      H1984   1.083       .  S
C1985      C1990   1.387       .  A
C1985      C1986   1.401       .  A
C1985      S1991   1.704       .  A
C1986      C1987   1.401       .  A
C1986      H1997   1.083       .  S
C1987      C1996   1.373       .  A
C1987      C1988   1.387       .  A
C1988      C1989   1.405       .  A
C1988      S1994   1.708       .  A
C1989      C1990   1.405       .  A
C1989      H1998   1.083       .  S
C1990      C1993   1.376       .  A
S1991      C1992   1.724       .  A
C1992      C1993   1.390       .  A
C1993      H1999   1.083       .  S
S1994      C1995   1.727       .  A
C1995      C1996   1.386       .  A
C1996      H2000   1.083       .  S
C2001      C2006   1.386       .  A
C2001      C2002   1.401       .  A
C2001      S2007   1.707       .  A
C2002      C2003   1.402       .  A
C2002      H2013   1.083       .  S
C2003      C2012   1.370       .  A
C2003      C2004   1.386       .  A
C2004      C2005   1.404       .  A
C2004      S2010   1.712       .  A
C2005      C2006   1.405       .  A
C2005      H2014   1.083       .  S
C2006      C2009   1.374       .  A
S2007      C2008   1.724       .  A
C2008      C2009   1.389       .  A
C2009      H2015   1.082       .  S
S2010      C2011   1.725       .  A
C2011      C2012   1.388       .  A
C2012      H2016   1.083       .  S
C2017      C2022   1.386       .  A
C2017      C2018   1.404       .  A
C2017      S2023   1.709       .  A
C2018      C2019   1.404       .  A
C2018      H2029   1.083       .  S
C2019      C2028   1.374       .  A
C2019      C2020   1.386       .  A
C2020      C2021   1.406       .  A
C2020      S2026   1.713       .  A
C2021      C2022   1.407       .  A
C2021      H2030   1.083       .  S
C2022      C2025   1.377       .  A
S2023      C2024   1.726       .  A
C2024      C2025   1.391       .  A
C2025      H2031   1.083       .  S
S2026      C2027   1.727       .  A
C2027      C2028   1.389       .  A
C2028      H2032   1.083       .  S
C2033      C2038   1.386       .  A
C2033      C2034   1.408       .  A
C2033      S2039   1.715       .  A
C2034      C2035   1.409       .  A
C2034      H2045   1.083       .  S
C2035      C2044   1.379       .  A
C2035      C2036   1.386       .  A
C2036      C2037   1.403       .  A
C2036      S2042   1.709       .  A
C2037      C2038   1.404       .  A
C2037      H2046   1.083       .  S
C2038      C2041   1.373       .  A
S2039      C2040   1.728       .  A
C2040      C2041   1.389       .  A
C2041      H2047   1.083       .  S
S2042      C2043   1.726       .  A
C2043      C2044   1.393       .  A
C2044      H2048   1.083       .  S
C2049      C2054   1.386   1_455  A
C2049      C2050   1.407       .  A
C2049      S2055   1.713       .  A
C2050      C2051   1.407       .  A
C2050      H2061   1.083       .  S
C2051      C2060   1.379       .  A
C2051      C2052   1.386   1_455  A
C2052      C2053   1.404       .  A
C2052      S2058   1.709       .  A
C2053      C2054   1.404       .  A
C2053      H2062   1.083       .  S
C2054      C2057   1.375       .  A
S2055      C2056   1.727       .  A
C2056      C2057   1.389   1_455  A
C2057      H2063   1.083       .  S
S2058      C2059   1.725   1_655  A
C2059      C2060   1.392       .  A
C2060      H2064   1.083       .  S
C2065      C2070   1.387       .  A
C2065      C2066   1.405       .  A
C2065      S2071   1.707       .  A
C2066      C2067   1.405       .  A
C2066      H2077   1.083       .  S
C2067      C2076   1.377       .  A
C2067      C2068   1.387       .  A
C2068      C2069   1.400       .  A
C2068      S2074   1.699       .  A
C2069      C2070   1.399       .  A
C2069      H2078   1.083       .  S
C2070      C2073   1.371       .  A
S2071      C2072   1.727       .  A
C2072      C2073   1.385       .  A
C2073      H2079   1.083       .  S
S2074      C2075   1.725       .  A
C2075      C2076   1.388       .  A
C2076      H2080   1.083       .  S
C2081      C2086   1.386       .  A
C2081      C2082   1.399       .  A
C2081      S2087   1.710       .  A
C2082      C2083   1.402       .  A
C2082      H2093   1.083       .  S
C2083      C2092   1.366       .  A
C2083      C2084   1.385       .  A
C2084      C2085   1.404       .  A
C2084      S2090   1.715       .  A
C2085      C2086   1.406       .  A
C2085      H2094   1.083       .  S
C2086      C2089   1.370       .  A
S2087      C2088   1.722       .  A
C2088      C2089   1.391       .  A
C2089      H2095   1.082       .  S
S2090      C2091   1.725       .  A
C2091      C2092   1.388       .  A
C2092      H2096   1.082       .  S
C2097      C2102   1.388       .  A
C2097      C2098   1.396       .  A
C2097      S2103   1.700       .  A
C2098      C2099   1.397       .  A
C2098      H2109   1.083       .  S
C2099      C2108   1.364       .  A
C2099      C2100   1.386       .  A
C2100      C2101   1.405       .  A
C2100      S2106   1.712       .  A
C2101      C2102   1.406       .  A
C2101      H2110   1.083       .  S
C2102      C2105   1.374       .  A
S2103      C2104   1.720       .  A
C2104      C2105   1.387       .  A
C2105      H2111   1.083       .  S
S2106      C2107   1.725       .  A
C2107      C2108   1.385       .  A
C2108      H2112   1.082       .  S
C2113      C2118   1.387       .  A
C2113      C2114   1.399       .  A
C2113      S2119   1.702       .  A
C2114      C2115   1.400       .  A
C2114      H2125   1.083       .  S
C2115      C2124   1.367       .  A
C2115      C2116   1.386       .  A
C2116      C2117   1.405       .  A
C2116      S2122   1.711       .  A
C2117      C2118   1.406       .  A
C2117      H2126   1.083       .  S
C2118      C2121   1.375       .  A
S2119      C2120   1.723       .  A
C2120      C2121   1.388       .  A
C2121      H2127   1.083       .  S
S2122      C2123   1.725       .  A
C2123      C2124   1.386       .  A
C2124      H2128   1.082       .  S
C2129      C2134   1.387       .  A
C2129      C2130   1.396       .  A
C2129      S2135   1.698       .  A
C2130      C2131   1.397       .  A
C2130      H2141   1.083       .  S
C2131      C2140   1.364       .  A
C2131      C2132   1.386       .  A
C2132      C2133   1.406       .  A
C2132      S2138   1.714       .  A
C2133      C2134   1.407       .  A
C2133      H2142   1.083       .  S
C2134      C2137   1.376       .  A
S2135      C2136   1.722       .  A
C2136      C2137   1.390       .  A
C2137      H2143   1.082       .  S
S2138      C2139   1.726       .  A
C2139      C2140   1.384       .  A
C2140      H2144   1.083       .  S
C2145      C2150   1.387       .  A
C2145      C2146   1.401       .  A
C2145      S2151   1.705       .  A
C2146      C2147   1.401       .  A
C2146      H2157   1.083       .  S
C2147      C2156   1.370       .  A
C2147      C2148   1.386       .  A
C2148      C2149   1.406       .  A
C2148      S2154   1.712       .  A
C2149      C2150   1.406       .  A
C2149      H2158   1.083       .  S
C2150      C2153   1.376       .  A
S2151      C2152   1.724       .  A
C2152      C2153   1.390       .  A
C2153      H2159   1.082       .  S
S2154      C2155   1.725       .  A
C2155      C2156   1.387       .  A
C2156      H2160   1.083       .  S
C2161      C2166   1.386       .  A
C2161      C2162   1.407       .  A
C2161      S2167   1.714       .  A
C2162      C2163   1.408       .  A
C2162      H2173   1.083       .  S
C2163      C2172   1.377       .  A
C2163      C2164   1.387       .  A
C2164      C2165   1.397       .  A
C2164      S2170   1.699       .  A
C2165      C2166   1.398       .  A
C2165      H2174   1.083       .  S
C2166      C2169   1.366       .  A
S2167      C2168   1.726       .  A
C2168      C2169   1.386       .  A
C2169      H2175   1.082       .  S
S2170      C2171   1.723       .  A
C2171      C2172   1.390       .  A
C2172      H2176   1.082       .  S
C2177      C2182   1.386       .  A
C2177      C2178   1.402       .  A
C2177      S2183   1.706       .  A
C2178      C2179   1.403       .  A
C2178      H2189   1.083       .  S
C2179      C2188   1.371       .  A
C2179      C2180   1.386       .  A
C2180      C2181   1.407       .  A
C2180      S2186   1.714       .  A
C2181      C2182   1.408       .  A
C2181      H2190   1.083       .  S
C2182      C2185   1.377       .  A
S2183      C2184   1.724       .  A
C2184      C2185   1.391       .  A
C2185      H2191   1.083       .  S
S2186      C2187   1.726       .  A
C2187      C2188   1.389       .  A
C2188      H2192   1.083       .  S
C2193      C2198   1.387       .  A
C2193      C2194   1.400       .  A
C2193      S2199   1.702       .  A
C2194      C2195   1.400       .  A
C2194      H2205   1.083       .  S
C2195      C2204   1.370       .  A
C2195      C2196   1.386       .  A
C2196      C2197   1.406       .  A
C2196      S2202   1.712       .  A
C2197      C2198   1.406       .  A
C2197      H2206   1.083       .  S
C2198      C2201   1.377       .  A
S2199      C2200   1.724       .  A
C2200      C2201   1.389       .  A
C2201      H2207   1.083       .  S
S2202      C2203   1.726       .  A
C2203      C2204   1.387       .  A
C2204      H2208   1.083       .  S
C2209      C2214   1.387       .  A
C2209      C2210   1.398       .  A
C2209      S2215   1.701       .  A
C2210      C2211   1.399       .  A
C2210      H2221   1.083       .  S
C2211      C2220   1.366       .  A
C2211      C2212   1.386       .  A
C2212      C2213   1.403       .  A
C2212      S2218   1.710       .  A
C2213      C2214   1.404       .  A
C2213      H2222   1.083       .  S
C2214      C2217   1.372       .  A
S2215      C2216   1.723       .  A
C2216      C2217   1.387       .  A
C2217      H2223   1.083       .  S
S2218      C2219   1.724       .  A
C2219      C2220   1.386       .  A
C2220      H2224   1.082       .  S
C2225      C2230   1.386       .  A
C2225      C2226   1.407       .  A
C2225      S2231   1.713       .  A
C2226      C2227   1.407       .  A
C2226      H2237   1.083       .  S
C2227      C2236   1.377       .  A
C2227      C2228   1.386       .  A
C2228      C2229   1.405       .  A
C2228      S2234   1.711       .  A
C2229      C2230   1.405       .  A
C2229      H2238   1.083   1_545  S
C2230      C2233   1.376       .  A
S2231      C2232   1.728       .  A
C2232      C2233   1.390       .  A
C2233      H2239   1.082       .  S
S2234      C2235   1.726       .  A
C2235      C2236   1.391       .  A
C2236      H2240   1.083       .  S
C2241      C2246   1.386       .  A
C2241      C2242   1.405       .  A
C2241      S2247   1.711       .  A
C2242      C2243   1.405       .  A
C2242      H2253   1.083       .  S
C2243      C2252   1.375       .  A
C2243      C2244   1.387       .  A
C2244      C2245   1.403       .  A
C2244      S2250   1.707       .  A
C2245      C2246   1.404       .  A
C2245      H2254   1.083       .  S
C2246      C2249   1.373       .  A
S2247      C2248   1.726       .  A
C2248      C2249   1.390       .  A
C2249      H2255   1.083       .  S
S2250      C2251   1.726       .  A
C2251      C2252   1.389       .  A
C2252      H2256   1.083       .  S
C2257      C2262   1.387   1_655  A
C2257      C2258   1.403       .  A
C2257      S2263   1.708       .  A
C2258      C2259   1.404       .  A
C2258      H2269   1.083       .  S
C2259      C2268   1.374       .  A
C2259      C2260   1.386   1_655  A
C2260      C2261   1.405       .  A
C2260      S2266   1.710       .  A
C2261      C2262   1.405       .  A
C2261      H2270   1.083       .  S
C2262      C2265   1.376       .  A
S2263      C2264   1.725       .  A
C2264      C2265   1.390   1_655  A
C2265      H2271   1.083       .  S
S2266      C2267   1.726       .  A
C2267      C2268   1.389   1_455  A
C2268      H2272   1.083       .  S
C2273      C2278   1.385       .  A
C2273      C2274   1.407       .  A
C2273      S2279   1.719       .  A
C2274      C2275   1.410       .  A
C2274      H2285   1.083       .  S
C2275      C2284   1.373       .  A
C2275      C2276   1.386       .  A
C2276      C2277   1.398       .  A
C2276      S2282   1.708       .  A
C2277      C2278   1.401       .  A
C2277      H2286   1.083       .  S
C2278      C2281   1.364       .  A
S2279      C2280   1.727       .  A
C2280      C2281   1.389       .  A
C2281      H2287   1.081       .  S
S2282      C2283   1.721       .  A
C2283      C2284   1.393       .  A
C2284      H2288   1.082       .  S
C2289      C2294   1.386       .  A
C2289      C2290   1.405       .  A
C2289      S2295   1.711       .  A
C2290      C2291   1.406       .  A
C2290      H2301   1.083       .  S
C2291      C2300   1.375       .  A
C2291      C2292   1.386       .  A
C2292      C2293   1.403       .  A
C2292      S2298   1.710       .  A
C2293      C2294   1.404       .  A
C2293      H2302   1.083       .  S
C2294      C2297   1.374       .  A
S2295      C2296   1.726       .  A
C2296      C2297   1.390       .  A
C2297      H2303   1.083       .  S
S2298      C2299   1.725       .  A
C2299      C2300   1.390       .  A
C2300      H2304   1.083       .  S
C2305      C2310   1.386   1_554  A
C2305      C2306   1.405       .  A
C2305      S2311   1.711       .  A
C2306      C2307   1.406       .  A
C2306      H2317   1.083       .  S
C2307      C2316   1.376       .  A
C2307      C2308   1.386   1_554  A
C2308      C2309   1.406       .  A
C2308      S2314   1.712       .  A
C2309      C2310   1.407       .  A
C2309      H2318   1.083       .  S
C2310      C2313   1.377       .  A
S2311      C2312   1.726   1_554  A
C2312      C2313   1.392       .  A
C2313      H2319   1.083       .  S
S2314      C2315   1.727       .  A
C2315      C2316   1.390   1_556  A
C2316      H2320   1.083       .  S
C2321      C2326   1.386       .  A
C2321      C2322   1.399       .  A
C2321      S2327   1.710       .  A
C2322      C2323   1.402       .  A
C2322      H2333   1.083       .  S
C2323      C2332   1.366       .  A
C2323      C2324   1.385       .  A
C2324      C2325   1.404       .  A
C2324      S2330   1.716       .  A
C2325      C2326   1.407       .  A
C2325      H2334   1.083       .  S
C2326      C2329   1.371       .  A
S2327      C2328   1.722       .  A
C2328      C2329   1.391       .  A
C2329      H2335   1.082       .  S
S2330      C2331   1.725       .  A
C2331      C2332   1.389       .  A
C2332      H2336   1.082       .  S
C2337      C2342   1.386       .  A
C2337      C2338   1.408       .  A
C2337      S2343   1.712       .  A
C2338      C2339   1.407       .  A
C2338      H2349   1.083       .  S
C2339      C2348   1.380       .  A
C2339      C2340   1.386       .  A
C2340      C2341   1.405       .  A
C2340      S2346   1.708       .  A
C2341      C2342   1.404       .  A
C2341      H2350   1.083       .  S
C2342      C2345   1.376       .  A
S2343      C2344   1.728       .  A
C2344      C2345   1.390       .  A
C2345      H2351   1.083       .  S
S2346      C2347   1.727       .  A
C2347      C2348   1.392       .  A
C2348      H2352   1.083       .  S
C2353      C2358   1.386       .  A
C2353      C2354   1.407       .  A
C2353      S2359   1.712       .  A
C2354      C2355   1.407       .  A
C2354      H2365   1.083   1_545  S
C2355      C2364   1.378       .  A
C2355      C2356   1.386       .  A
C2356      C2357   1.405       .  A
C2356      S2362   1.710       .  A
C2357      C2358   1.405       .  A
C2357      H2366   1.083       .  S
C2358      C2361   1.376       .  A
S2359      C2360   1.727       .  A
C2360      C2361   1.390       .  A
C2361      H2367   1.083       .  S
S2362      C2363   1.726       .  A
C2363      C2364   1.391       .  A
C2364      H2368   1.083       .  S
C2369      C2374   1.386       .  A
C2369      C2370   1.405       .  A
C2369      S2375   1.712       .  A
C2370      C2371   1.406       .  A
C2370      H2381   1.083       .  S
C2371      C2380   1.376       .  A
C2371      C2372   1.387       .  A
C2372      C2373   1.402       .  A
C2372      S2378   1.706       .  A
C2373      C2374   1.402       .  A
C2373      H2382   1.083       .  S
C2374      C2377   1.371       .  A
S2375      C2376   1.726       .  A
C2376      C2377   1.388       .  A
C2377      H2383   1.083       .  S
S2378      C2379   1.725       .  A
C2379      C2380   1.390       .  A
C2380      H2384   1.083       .  S
C2385      C2390   1.387   1_556  A
C2385      C2386   1.404       .  A
C2385      S2391   1.708       .  A
C2386      C2387   1.404       .  A
C2386      H2397   1.083       .  S
C2387      C2396   1.375       .  A
C2387      C2388   1.386   1_556  A
C2388      C2389   1.406       .  A
C2388      S2394   1.711       .  A
C2389      C2390   1.406       .  A
C2389      H2398   1.083       .  S
C2390      C2393   1.377       .  A
S2391      C2392   1.726       .  A
C2392      C2393   1.390   1_556  A
C2393      H2399   1.083       .  S
S2394      C2395   1.726       .  A
C2395      C2396   1.390   1_554  A
C2396      H2400   1.083       .  S
C2401      C2406   1.386       .  A
C2401      C2402   1.410       .  A
C2401      S2407   1.716       .  A
C2402      C2403   1.410       .  A
C2402      H2413   1.083       .  S
C2403      C2412   1.383       .  A
C2403      C2404   1.386       .  A
C2404      C2405   1.403       .  A
C2404      S2410   1.706       .  A
C2405      C2406   1.403       .  A
C2405      H2414   1.083       .  S
C2406      C2409   1.375       .  A
S2407      C2408   1.730       .  A
C2408      C2409   1.390       .  A
C2409      H2415   1.083       .  S
S2410      C2411   1.726       .  A
C2411      C2412   1.394       .  A
C2412      H2416   1.083   1_565  S
C2417      C2422   1.387       .  A
C2417      C2418   1.404       .  A
C2417      S2423   1.705       .  A
C2418      C2419   1.403       .  A
C2418      H2429   1.083       .  S
C2419      C2428   1.377       .  A
C2419      C2420   1.386       .  A
C2420      C2421   1.406       .  A
C2420      S2426   1.708       .  A
C2421      C2422   1.405       .  A
C2421      H2430   1.083       .  S
C2422      C2425   1.379       .  A
S2423      C2424   1.727       .  A
C2424      C2425   1.390       .  A
C2425      H2431   1.083       .  S
S2426      C2427   1.728       .  A
C2427      C2428   1.389       .  A
C2428      H2432   1.083       .  S
C2433      C2438   1.386   1_655  A
C2433      C2434   1.407       .  A
C2433      S2439   1.715       .  A
C2434      C2435   1.408       .  A
C2434      H2445   1.083       .  S
C2435      C2444   1.378       .  A
C2435      C2436   1.386   1_655  A
C2436      C2437   1.404       .  A
C2436      S2442   1.710       .  A
C2437      C2438   1.405       .  A
C2437      H2446   1.083       .  S
C2438      C2441   1.374       .  A
S2439      C2440   1.727       .  A
C2440      C2441   1.391   1_655  A
C2441      H2447   1.083       .  S
S2442      C2443   1.726   1_455  A
C2443      C2444   1.392       .  A
C2444      H2448   1.083       .  S
C2449      C2454   1.387       .  A
C2449      C2450   1.406       .  A
C2449      S2455   1.705       .  A
C2450      C2451   1.404       .  A
C2450      H2461   1.083       .  S
C2451      C2460   1.379       .  A
C2451      C2452   1.387       .  A
C2452      C2453   1.403       .  A
C2452      S2458   1.702       .  A
C2453      C2454   1.402       .  A
C2453      H2462   1.083       .  S
C2454      C2457   1.376       .  A
S2455      C2456   1.728       .  A
C2456      C2457   1.387       .  A
C2457      H2463   1.083       .  S
S2458      C2459   1.726       .  A
C2459      C2460   1.389       .  A
C2460      H2464   1.083       .  S
C2465      C2470   1.387       .  A
C2465      C2466   1.405       .  A
C2465      S2471   1.704       .  A
C2466      C2467   1.403       .  A
C2466      H2477   1.083       .  S
C2467      C2476   1.379       .  A
C2467      C2468   1.387       .  A
C2468      C2469   1.405       .  A
C2468      S2474   1.703       .  A
C2469      C2470   1.403       .  A
C2469      H2478   1.083       .  S
C2470      C2473   1.378       .  A
S2471      C2472   1.727       .  A
C2472      C2473   1.388       .  A
C2473      H2479   1.083       .  S
S2474      C2475   1.728       .  A
C2475      C2476   1.389       .  A
C2476      H2480   1.083       .  S
C2481      C2486   1.387       .  A
C2481      C2482   1.395       .  A
C2481      S2487   1.697       .  A
C2482      C2483   1.396       .  A
C2482      H2493   1.083       .  S
C2483      C2492   1.364       .  A
C2483      C2484   1.386       .  A
C2484      C2485   1.406       .  A
C2484      S2490   1.713       .  A
C2485      C2486   1.407       .  A
C2485      H2494   1.083       .  S
C2486      C2489   1.376       .  A
S2487      C2488   1.721       .  A
C2488      C2489   1.388       .  A
C2489      H2495   1.083       .  S
S2490      C2491   1.726       .  A
C2491      C2492   1.385       .  A
C2492      H2496   1.082       .  S
C2497      C2502   1.386       .  A
C2497      C2498   1.403       .  A
C2497      S2503   1.706       .  A
C2498      C2499   1.403       .  A
C2498      H2509   1.083       .  S
C2499      C2508   1.373       .  A
C2499      C2500   1.386       .  A
C2500      C2501   1.408       .  A
C2500      S2506   1.715       .  A
C2501      C2502   1.408       .  A
C2501      H2510   1.083       .  S
C2502      C2505   1.380       .  A
S2503      C2504   1.726       .  A
C2504      C2505   1.391       .  A
C2505      H2511   1.083       .  S
S2506      C2507   1.727       .  A
C2507      C2508   1.389       .  A
C2508      H2512   1.083       .  S
C2513      C2518   1.387       .  A
C2513      C2514   1.399       .  A
C2513      S2519   1.702       .  A
C2514      C2515   1.400       .  A
C2514      H2525   1.083       .  S
C2515      C2524   1.368       .  A
C2515      C2516   1.386       .  A
C2516      C2517   1.405       .  A
C2516      S2522   1.711       .  A
C2517      C2518   1.405       .  A
C2517      H2526   1.083       .  S
C2518      C2521   1.375       .  A
S2519      C2520   1.723       .  A
C2520      C2521   1.388       .  A
C2521      H2527   1.083       .  S
S2522      C2523   1.725       .  A
C2523      C2524   1.387       .  A
C2524      H2528   1.082       .  S
C2529      C2534   1.386       .  A
C2529      C2530   1.399       .  A
C2529      S2535   1.709       .  A
C2530      C2531   1.402       .  A
C2530      H2541   1.083       .  S
C2531      C2540   1.366       .  A
C2531      C2532   1.386       .  A
C2532      C2533   1.402       .  A
C2532      S2538   1.711       .  A
C2533      C2534   1.404       .  A
C2533      H2542   1.083       .  S
C2534      C2537   1.368       .  A
S2535      C2536   1.722       .  A
C2536      C2537   1.389       .  A
C2537      H2543   1.082       .  S
S2538      C2539   1.723       .  A
C2539      C2540   1.388       .  A
C2540      H2544   1.082       .  S
C2545      C2550   1.387       .  A
C2545      C2546   1.405       .  A
C2545      S2551   1.704       .  A
C2546      C2547   1.404       .  A
C2546      H2557   1.083       .  S
C2547      C2556   1.378       .  A
C2547      C2548   1.387       .  A
C2548      C2549   1.404       .  A
C2548      S2554   1.704       .  A
C2549      C2550   1.403       .  A
C2549      H2558   1.083       .  S
C2550      C2553   1.377       .  A
S2551      C2552   1.728       .  A
C2552      C2553   1.388       .  A
C2553      H2559   1.083       .  S
S2554      C2555   1.726       .  A
C2555      C2556   1.389       .  A
C2556      H2560   1.083       .  S
C2561      C2566   1.387       .  A
C2561      C2562   1.401       .  A
C2561      S2567   1.704       .  A
C2562      C2563   1.401       .  A
C2562      H2573   1.083       .  S
C2563      C2572   1.371       .  A
C2563      C2564   1.386       .  A
C2564      C2565   1.409       .  A
C2564      S2570   1.716       .  A
C2565      C2566   1.409       .  A
C2565      H2574   1.083       .  S
C2566      C2569   1.380       .  A
S2567      C2568   1.725       .  A
C2568      C2569   1.391       .  A
C2569      H2575   1.082       .  S
S2570      C2571   1.728       .  A
C2571      C2572   1.388       .  A
C2572      H2576   1.083       .  S
C2577      C2582   1.386       .  A
C2577      C2578   1.406       .  A
C2577      S2583   1.711       .  A
C2578      C2579   1.406       .  A
C2578      H2589   1.083       .  S
C2579      C2588   1.376       .  A
C2579      C2580   1.387       .  A
C2580      C2581   1.396       .  A
C2580      S2586   1.697       .  A
C2581      C2582   1.397       .  A
C2581      H2590   1.083       .  S
C2582      C2585   1.365       .  A
S2583      C2584   1.727       .  A
C2584      C2585   1.384       .  A
C2585      H2591   1.082       .  S
S2586      C2587   1.722       .  A
C2587      C2588   1.389       .  A
C2588      H2592   1.083       .  S
C2593      C2598   1.386       .  A
C2593      C2594   1.406       .  A
C2593      S2599   1.713       .  A
C2594      C2595   1.406       .  A
C2594      H2605   1.083       .  S
C2595      C2604   1.375       .  A
C2595      C2596   1.387       .  A
C2596      C2597   1.400       .  A
C2596      S2602   1.704       .  A
C2597      C2598   1.401       .  A
C2597      H2606   1.083       .  S
C2598      C2601   1.369       .  A
S2599      C2600   1.725       .  A
C2600      C2601   1.387       .  A
C2601      H2607   1.083       .  S
S2602      C2603   1.723       .  A
C2603      C2604   1.389       .  A
C2604      H2608   1.083       .  S
C2609      C2614   1.386       .  A
C2609      C2610   1.401       .  A
C2609      S2615   1.706       .  A
C2610      C2611   1.402       .  A
C2610      H2621   1.083       .  S
C2611      C2620   1.370       .  A
C2611      C2612   1.386       .  A
C2612      C2613   1.407       .  A
C2612      S2618   1.714       .  A
C2613      C2614   1.407       .  A
C2613      H2622   1.083       .  S
C2614      C2617   1.377       .  A
S2615      C2616   1.725       .  A
C2616      C2617   1.390       .  A
C2617      H2623   1.082       .  S
S2618      C2619   1.725       .  A
C2619      C2620   1.388       .  A
C2620      H2624   1.083       .  S
C2625      C2630   1.387       .  A
C2625      C2626   1.395       .  A
C2625      S2631   1.698       .  A
C2626      C2627   1.396       .  A
C2626      H2637   1.083       .  S
C2627      C2636   1.363       .  A
C2627      C2628   1.386       .  A
C2628      C2629   1.408       .  A
C2628      S2634   1.716       .  A
C2629      C2630   1.409       .  A
C2629      H2638   1.083       .  S
C2630      C2633   1.377       .  A
S2631      C2632   1.721       .  A
C2632      C2633   1.391       .  A
C2633      H2639   1.083       .  S
S2634      C2635   1.728       .  A
C2635      C2636   1.384       .  A
C2636      H2640   1.082       .  S
C2641      C2646   1.386       .  A
C2641      C2642   1.403       .  A
C2641      S2647   1.712       .  A
C2642      C2643   1.406       .  A
C2642      H2653   1.083       .  S
C2643      C2652   1.370       .  A
C2643      C2644   1.386       .  A
C2644      C2645   1.401       .  A
C2644      S2650   1.710       .  A
C2645      C2646   1.403       .  A
C2645      H2654   1.083       .  S
C2646      C2649   1.368       .  A
S2647      C2648   1.725       .  A
C2648      C2649   1.389       .  A
C2649      H2655   1.082       .  S
S2650      C2651   1.723       .  A
C2651      C2652   1.391       .  A
C2652      H2656   1.082       .  S
C2657      C2662   1.385       .  A
C2657      C2658   1.403       .  A
C2657      S2663   1.714       .  A
C2658      C2659   1.406       .  A
C2658      H2669   1.083       .  S
C2659      C2668   1.370       .  A
C2659      C2660   1.386       .  A
C2660      C2661   1.399       .  A
C2660      S2666   1.708       .  A
C2661      C2662   1.402       .  A
C2661      H2670   1.083       .  S
C2662      C2665   1.366       .  A
S2663      C2664   1.725       .  A
C2664      C2665   1.389       .  A
C2665      H2671   1.082       .  S
S2666      C2667   1.722       .  A
C2667      C2668   1.389       .  A
C2668      H2672   1.082       .  S
C2673      C2678   1.386       .  A
C2673      C2674   1.407       .  A
C2673      S2679   1.714       .  A
C2674      C2675   1.408       .  A
C2674      H2685   1.083       .  S
C2675      C2684   1.375       .  A
C2675      C2676   1.387       .  A
C2676      C2677   1.394       .  A
C2676      S2682   1.698       .  A
C2677      C2678   1.396       .  A
C2677      H2686   1.083       .  S
C2678      C2681   1.362       .  A
S2679      C2680   1.727       .  A
C2680      C2681   1.383       .  A
C2681      H2687   1.082       .  S
S2682      C2683   1.720       .  A
C2683      C2684   1.390       .  A
C2684      H2688   1.083       .  S
C2689      C2694   1.387       .  A
C2689      C2690   1.401       .  A
C2689      S2695   1.704       .  A
C2690      C2691   1.401       .  A
C2690      H2701   1.083       .  S
C2691      C2700   1.370       .  A
C2691      C2692   1.386       .  A
C2692      C2693   1.406       .  A
C2692      S2698   1.712       .  A
C2693      C2694   1.406       .  A
C2693      H2702   1.083       .  S
C2694      C2697   1.376       .  A
S2695      C2696   1.723       .  A
C2696      C2697   1.390       .  A
C2697      H2703   1.083       .  S
S2698      C2699   1.725       .  A
C2699      C2700   1.387       .  A
C2700      H2704   1.083       .  S
C2705      C2710   1.386       .  A
C2705      C2706   1.405       .  A
C2705      S2711   1.712       .  A
C2706      C2707   1.406       .  A
C2706      H2717   1.083       .  S
C2707      C2716   1.374       .  A
C2707      C2708   1.387       .  A
C2708      C2709   1.397       .  A
C2708      S2714   1.701       .  A
C2709      C2710   1.398       .  A
C2709      H2718   1.083       .  S
C2710      C2713   1.365       .  A
S2711      C2712   1.725       .  A
C2712      C2713   1.385       .  A
C2713      H2719   1.082       .  S
S2714      C2715   1.722       .  A
C2715      C2716   1.389       .  A
C2716      H2720   1.082       .  S
C2721      C2726   1.387       .  A
C2721      C2722   1.404       .  A
C2721      S2727   1.704       .  A
C2722      C2723   1.403       .  A
C2722      H2733   1.083       .  S
C2723      C2732   1.377       .  A
C2723      C2724   1.387       .  A
C2724      C2725   1.403       .  A
C2724      S2730   1.703       .  A
C2725      C2726   1.402       .  A
C2725      H2734   1.083       .  S
C2726      C2729   1.375       .  A
S2727      C2728   1.726       .  A
C2728      C2729   1.388       .  A
C2729      H2735   1.083       .  S
S2730      C2731   1.727       .  A
C2731      C2732   1.388       .  A
C2732      H2736   1.083       .  S
C2737      C2742   1.387       .  A
C2737      C2738   1.396       .  A
C2737      S2743   1.700       .  A
C2738      C2739   1.398       .  A
C2738      H2749   1.083       .  S
C2739      C2748   1.364       .  A
C2739      C2740   1.386       .  A
C2740      C2741   1.407       .  A
C2740      S2746   1.715       .  A
C2741      C2742   1.408       .  A
C2741      H2750   1.083       .  S
C2742      C2745   1.375       .  A
S2743      C2744   1.720       .  A
C2744      C2745   1.390       .  A
C2745      H2751   1.083       .  S
S2746      C2747   1.727       .  A
C2747      C2748   1.385       .  A
C2748      H2752   1.082       .  S
C2753      C2758   1.386       .  A
C2753      C2754   1.398       .  A
C2753      S2759   1.708       .  A
C2754      C2755   1.401       .  A
C2754      H2765   1.083       .  S
C2755      C2764   1.364       .  A
C2755      C2756   1.385       .  A
C2756      C2757   1.405       .  A
C2756      S2762   1.717       .  A
C2757      C2758   1.407       .  A
C2757      H2766   1.083       .  S
C2758      C2761   1.371       .  A
S2759      C2760   1.721       .  A
C2760      C2761   1.391       .  A
C2761      H2767   1.082       .  S
S2762      C2763   1.726       .  A
C2763      C2764   1.388       .  A
C2764      H2768   1.082       .  S
C2769      C2774   1.386       .  A
C2769      C2770   1.400       .  A
C2769      S2775   1.706       .  A
C2770      C2771   1.402       .  A
C2770      H2781   1.083       .  S
C2771      C2780   1.368       .  A
C2771      C2772   1.386       .  A
C2772      C2773   1.403       .  A
C2772      S2778   1.711       .  A
C2773      C2774   1.404       .  A
C2773      H2782   1.083       .  S
C2774      C2777   1.372       .  A
S2775      C2776   1.724       .  A
C2776      C2777   1.389       .  A
C2777      H2783   1.082       .  S
S2778      C2779   1.724       .  A
C2779      C2780   1.387       .  A
C2780      H2784   1.082       .  S
C2785      C2790   1.387       .  A
C2785      C2786   1.396       .  A
C2785      S2791   1.699       .  A
C2786      C2787   1.397       .  A
C2786      H2797   1.083       .  S
C2787      C2796   1.364       .  A
C2787      C2788   1.386       .  A
C2788      C2789   1.405       .  A
C2788      S2794   1.711       .  A
C2789      C2790   1.406       .  A
C2789      H2798   1.083       .  S
C2790      C2793   1.374       .  A
S2791      C2792   1.721       .  A
C2792      C2793   1.388       .  A
C2793      H2799   1.083       .  S
S2794      C2795   1.726       .  A
C2795      C2796   1.384       .  A
C2796      H2800   1.082       .  S
C2801      C2806   1.386       .  A
C2801      C2802   1.406       .  A
C2801      S2807   1.713       .  A
C2802      C2803   1.407       .  A
C2802      H2813   1.083       .  S
C2803      C2812   1.376       .  A
C2803      C2804   1.387       .  A
C2804      C2805   1.399       .  A
C2804      S2810   1.703       .  A
C2805      C2806   1.400       .  A
C2805      H2814   1.083       .  S
C2806      C2809   1.368       .  A
S2807      C2808   1.725       .  A
C2808      C2809   1.386       .  A
C2809      H2815   1.083       .  S
S2810      C2811   1.723       .  A
C2811      C2812   1.390       .  A
C2812      H2816   1.083       .  S
C2817      C2822   1.387       .  A
C2817      C2818   1.396       .  A
C2817      S2823   1.699       .  A
C2818      C2819   1.397       .  A
C2818      H2829   1.083       .  S
C2819      C2828   1.364       .  A
C2819      C2820   1.386       .  A
C2820      C2821   1.404       .  A
C2820      S2826   1.710       .  A
C2821      C2822   1.405       .  A
C2821      H2830   1.083       .  S
C2822      C2825   1.373       .  A
S2823      C2824   1.721       .  A
C2824      C2825   1.388       .  A
C2825      H2831   1.082       .  S
S2826      C2827   1.726       .  A
C2827      C2828   1.384       .  A
C2828      H2832   1.082       .  S
C2833      C2838   1.387       .  A
C2833      C2834   1.405       .  A
C2833      S2839   1.707       .  A
C2834      C2835   1.405       .  A
C2834      H2845   1.083       .  S
C2835      C2844   1.376       .  A
C2835      C2836   1.387       .  A
C2836      C2837   1.398       .  A
C2836      S2842   1.698       .  A
C2837      C2838   1.398       .  A
C2837      H2846   1.083       .  S
C2838      C2841   1.369       .  A
S2839      C2840   1.727       .  A
C2840      C2841   1.383       .  A
C2841      H2847   1.083       .  S
S2842      C2843   1.724       .  A
C2843      C2844   1.388       .  A
C2844      H2848   1.083       .  S
C2849      C2854   1.387       .  A
C2849      C2850   1.400       .  A
C2849      S2855   1.701       .  A
C2850      C2851   1.400       .  A
C2850      H2861   1.083       .  S
C2851      C2860   1.370       .  A
C2851      C2852   1.387       .  A
C2852      C2853   1.404       .  A
C2852      S2858   1.706       .  A
C2853      C2854   1.404       .  A
C2853      H2862   1.083       .  S
C2854      C2857   1.375       .  A
S2855      C2856   1.725       .  A
C2856      C2857   1.388       .  A
C2857      H2863   1.083       .  S
S2858      C2859   1.726       .  A
C2859      C2860   1.386       .  A
C2860      H2864   1.083       .  S
C2865      C2870   1.387       .  A
C2865      C2866   1.397       .  A
C2865      S2871   1.700       .  A
C2866      C2867   1.398       .  A
C2866      H2877   1.083       .  S
C2867      C2876   1.365       .  A
C2867      C2868   1.386       .  A
C2868      C2869   1.405       .  A
C2868      S2874   1.712       .  A
C2869      C2870   1.406       .  A
C2869      H2878   1.083       .  S
C2870      C2873   1.375       .  A
S2871      C2872   1.722       .  A
C2872      C2873   1.389       .  A
C2873      H2879   1.082       .  S
S2874      C2875   1.725       .  A
C2875      C2876   1.385       .  A
C2876      H2880   1.082       .  S
C2881      C2886   1.386       .  A
C2881      C2882   1.400       .  A
C2881      S2887   1.708       .  A
C2882      C2883   1.402       .  A
C2882      H2893   1.083       .  S
C2883      C2892   1.367       .  A
C2883      C2884   1.385       .  A
C2884      C2885   1.406       .  A
C2884      S2890   1.716       .  A
C2885      C2886   1.408       .  A
C2885      H2894   1.083       .  S
C2886      C2889   1.374       .  A
S2887      C2888   1.722       .  A
C2888      C2889   1.392       .  A
C2889      H2895   1.082       .  S
S2890      C2891   1.725       .  A
C2891      C2892   1.388       .  A
C2892      H2896   1.082       .  S
C2897      C2902   1.387       .  A
C2897      C2898   1.399       .  A
C2897      S2903   1.704       .  A
C2898      C2899   1.400       .  A
C2898      H2909   1.083       .  S
C2899      C2908   1.367       .  A
C2899      C2900   1.385       .  A
C2900      C2901   1.409       .  A
C2900      S2906   1.718       .  A
C2901      C2902   1.410       .  A
C2901      H2910   1.083       .  S
C2902      C2905   1.379       .  A
S2903      C2904   1.722       .  A
C2904      C2905   1.392       .  A
C2905      H2911   1.083       .  S
S2906      C2907   1.728       .  A
C2907      C2908   1.388       .  A
C2908      H2912   1.082       .  S
C2913      C2918   1.387       .  A
C2913      C2914   1.404       .  A
C2913      S2919   1.705       .  A
C2914      C2915   1.403       .  A
C2914      H2925   1.083       .  S
C2915      C2924   1.375       .  A
C2915      C2916   1.387       .  A
C2916      C2917   1.400       .  A
C2916      S2922   1.700       .  A
C2917      C2918   1.400       .  A
C2917      H2926   1.083       .  S
C2918      C2921   1.372       .  A
S2919      C2920   1.726       .  A
C2920      C2921   1.386       .  A
C2921      H2927   1.083       .  S
S2922      C2923   1.724       .  A
C2923      C2924   1.387       .  A
C2924      H2928   1.083       .  S
C2929      C2934   1.386       .  A
C2929      C2930   1.408       .  A
C2929      S2935   1.715       .  A
C2930      C2931   1.409       .  A
C2930      H2941   1.083       .  S
C2931      C2940   1.378       .  A
C2931      C2932   1.387       .  A
C2932      C2933   1.395       .  A
C2932      S2938   1.698       .  A
C2933      C2934   1.396       .  A
C2933      H2942   1.083       .  S
C2934      C2937   1.364       .  A
S2935      C2936   1.728       .  A
C2936      C2937   1.384       .  A
C2937      H2943   1.082       .  S
S2938      C2939   1.721       .  A
C2939      C2940   1.391       .  A
C2940      H2944   1.083       .  S
C2945      C2950   1.387       .  A
C2945      C2946   1.397       .  A
C2945      S2951   1.699       .  A
C2946      C2947   1.398       .  A
C2946      H2957   1.083       .  S
C2947      C2956   1.367       .  A
C2947      C2948   1.386       .  A
C2948      C2949   1.406       .  A
C2948      S2954   1.712       .  A
C2949      C2950   1.406       .  A
C2949      H2958   1.083       .  S
C2950      C2953   1.376       .  A
S2951      C2952   1.723       .  A
C2952      C2953   1.388       .  A
C2953      H2959   1.083       .  S
S2954      C2955   1.727       .  A
C2955      C2956   1.385       .  A
C2956      H2960   1.082       .  S
C2961      C2966   1.387       .  A
C2961      C2962   1.397       .  A
C2961      S2967   1.700       .  A
C2962      C2963   1.398       .  A
C2962      H2973   1.083       .  S
C2963      C2972   1.365       .  A
C2963      C2964   1.387       .  A
C2964      C2965   1.401       .  A
C2964      S2970   1.705       .  A
C2965      C2966   1.402       .  A
C2965      H2974   1.083       .  S
C2966      C2969   1.370       .  A
S2967      C2968   1.721       .  A
C2968      C2969   1.386       .  A
C2969      H2975   1.083       .  S
S2970      C2971   1.724       .  A
C2971      C2972   1.384       .  A
C2972      H2976   1.082       .  S
C2977      C2982   1.387       .  A
C2977      C2978   1.400       .  A
C2977      S2983   1.702       .  A
C2978      C2979   1.400       .  A
C2978      H2989   1.083       .  S
C2979      C2988   1.369       .  A
C2979      C2980   1.386       .  A
C2980      C2981   1.406       .  A
C2980      S2986   1.712       .  A
C2981      C2982   1.406       .  A
C2981      H2990   1.083       .  S
C2982      C2985   1.377       .  A
S2983      C2984   1.723       .  A
C2984      C2985   1.389       .  A
C2985      H2991   1.083       .  S
S2986      C2987   1.726       .  A
C2987      C2988   1.387       .  A
C2988      H2992   1.083       .  S
C2993      C2998   1.386       .  A
C2993      C2994   1.404       .  A
C2993      S2999   1.709       .  A
C2994      C2995   1.404       .  A
C2994      H3005   1.083       .  S
C2995      C3004   1.373       .  A
C2995      C2996   1.387       .  A
C2996      C2997   1.399       .  A
C2996      S3002   1.702       .  A
C2997      C2998   1.400       .  A
C2997      H3006   1.083       .  S
C2998      C3001   1.368       .  A
S2999      C3000   1.724       .  A
C3000      C3001   1.386       .  A
C3001      H3007   1.083       .  S
S3002      C3003   1.723       .  A
C3003      C3004   1.388       .  A
C3004      H3008   1.083       .  S
C3009      C3014   1.387       .  A
C3009      C3010   1.394       .  A
C3009      S3015   1.696       .  A
C3010      C3011   1.395       .  A
C3010      H3021   1.083       .  S
C3011      C3020   1.362       .  A
C3011      C3012   1.386       .  A
C3012      C3013   1.407       .  A
C3012      S3018   1.714       .  A
C3013      C3014   1.408       .  A
C3013      H3022   1.083       .  S
C3014      C3017   1.376       .  A
S3015      C3016   1.721       .  A
C3016      C3017   1.390       .  A
C3017      H3023   1.083       .  S
S3018      C3019   1.727       .  A
C3019      C3020   1.384       .  A
C3020      H3024   1.082       .  S
C3025      C3030   1.386       .  A
C3025      C3026   1.400       .  A
C3025      S3031   1.707       .  A
C3026      C3027   1.402       .  A
C3026      H3037   1.083       .  S
C3027      C3036   1.367       .  A
C3027      C3028   1.386       .  A
C3028      C3029   1.404       .  A
C3028      S3034   1.713       .  A
C3029      C3030   1.405       .  A
C3029      H3038   1.083       .  S
C3030      C3033   1.371       .  A
S3031      C3032   1.722       .  A
C3032      C3033   1.389       .  A
C3033      H3039   1.082       .  S
S3034      C3035   1.724       .  A
C3035      C3036   1.388       .  A
C3036      H3040   1.082       .  S
C3041      C3046   1.386       .  A
C3041      C3042   1.404       .  A
C3041      S3047   1.710       .  A
C3042      C3043   1.404       .  A
C3042      H3053   1.083       .  S
C3043      C3052   1.374       .  A
C3043      C3044   1.386       .  A
C3044      C3045   1.405       .  A
C3044      S3050   1.710       .  A
C3045      C3046   1.405       .  A
C3045      H3054   1.083       .  S
C3046      C3049   1.375       .  A
S3047      C3048   1.725       .  A
C3048      C3049   1.390       .  A
C3049      H3055   1.083       .  S
S3050      C3051   1.726       .  A
C3051      C3052   1.389       .  A
C3052      H3056   1.082       .  S
C3057      C3062   1.385       .  A
C3057      C3058   1.403       .  A
C3057      S3063   1.714       .  A
C3058      C3059   1.406       .  A
C3058      H3069   1.083       .  S
C3059      C3068   1.369       .  A
C3059      C3060   1.386       .  A
C3060      C3061   1.399       .  A
C3060      S3066   1.709       .  A
C3061      C3062   1.402       .  A
C3061      H3070   1.083       .  S
C3062      C3065   1.365       .  A
S3063      C3064   1.724       .  A
C3064      C3065   1.389       .  A
C3065      H3071   1.082       .  S
S3066      C3067   1.722       .  A
C3067      C3068   1.390       .  A
C3068      H3072   1.082       .  S
C3073      C3078   1.385       .  A
C3073      C3074   1.403       .  A
C3073      S3079   1.714       .  A
C3074      C3075   1.406       .  A
C3074      H3085   1.083       .  S
C3075      C3084   1.369       .  A
C3075      C3076   1.386       .  A
C3076      C3077   1.400       .  A
C3076      S3082   1.710       .  A
C3077      C3078   1.403       .  A
C3077      H3086   1.083       .  S
C3078      C3081   1.366       .  A
S3079      C3080   1.724       .  A
C3080      C3081   1.390       .  A
C3081      H3087   1.082       .  S
S3082      C3083   1.723       .  A
C3083      C3084   1.390       .  A
C3084      H3088   1.082       .  S
C3089      C3094   1.386       .  A
C3089      C3090   1.406       .  A
C3089      S3095   1.709       .  A
C3090      C3091   1.406       .  A
C3090      H3101   1.083       .  S
C3091      C3100   1.376       .  A
C3091      C3092   1.386       .  A
C3092      C3093   1.405       .  A
C3092      S3098   1.710       .  A
C3093      C3094   1.405       .  A
C3093      H3102   1.083       .  S
C3094      C3097   1.377       .  A
S3095      C3096   1.728       .  A
C3096      C3097   1.389       .  A
C3097      H3103   1.083       .  S
S3098      C3099   1.726       .  A
C3099      C3100   1.391       .  A
C3100      H3104   1.083       .  S
C3105      C3110   1.386       .  A
C3105      C3106   1.405       .  A
C3105      S3111   1.714       .  A
C3106      C3107   1.406       .  A
C3106      H3117   1.083       .  S
C3107      C3116   1.375       .  A
C3107      C3108   1.386       .  A
C3108      C3109   1.405       .  A
C3108      S3114   1.712       .  A
C3109      C3110   1.406       .  A
C3109      H3118   1.083       .  S
C3110      C3113   1.373       .  A
S3111      C3112   1.725       .  A
C3112      C3113   1.391       .  A
C3113      H3119   1.083       .  S
S3114      C3115   1.726       .  A
C3115      C3116   1.389       .  A
C3116      H3120   1.082       .  S
C3121      C3126   1.386       .  A
C3121      C3122   1.408       .  A
C3121      S3127   1.714       .  A
C3122      C3123   1.408       .  A
C3122      H3133   1.083       .  S
C3123      C3132   1.379       .  A
C3123      C3124   1.386       .  A
C3124      C3125   1.407       .  A
C3124      S3130   1.712       .  A
C3125      C3126   1.407       .  A
C3125      H3134   1.083       .  S
C3126      C3129   1.378       .  A
S3127      C3128   1.728       .  A
C3128      C3129   1.392       .  A
C3129      H3135   1.083       .  S
S3130      C3131   1.727       .  A
C3131      C3132   1.392       .  A
C3132      H3136   1.083       .  S
C3137      C3142   1.387       .  A
C3137      C3138   1.403       .  A
C3137      S3143   1.702       .  A
C3138      C3139   1.402       .  A
C3138      H3149   1.083       .  S
C3139      C3148   1.375       .  A
C3139      C3140   1.387       .  A
C3140      C3141   1.404       .  A
C3140      S3146   1.705       .  A
C3141      C3142   1.403       .  A
C3141      H3150   1.083       .  S
C3142      C3145   1.377       .  A
S3143      C3144   1.727       .  A
C3144      C3145   1.388       .  A
C3145      H3151   1.083       .  S
S3146      C3147   1.725       .  A
C3147      C3148   1.386       .  A
C3148      H3152   1.083       .  S
C3153      C3158   1.387       .  A
C3153      C3154   1.403       .  A
C3153      S3159   1.703       .  A
C3154      C3155   1.402       .  A
C3154      H3165   1.083       .  S
C3155      C3164   1.374       .  A
C3155      C3156   1.387       .  A
C3156      C3157   1.402       .  A
C3156      S3162   1.701       .  A
C3157      C3158   1.401       .  A
C3157      H3166   1.083       .  S
C3158      C3161   1.374       .  A
S3159      C3160   1.727       .  A
C3160      C3161   1.386       .  A
C3161      H3167   1.083       .  S
S3162      C3163   1.725       .  A
C3163      C3164   1.387       .  A
C3164      H3168   1.083       .  S
C3169      C3174   1.386       .  A
C3169      C3170   1.405   1_556  A
C3169      S3175   1.710   1_556  A
C3170      C3171   1.405   1_554  A
C3170      H3181   1.083       .  S
C3171      C3180   1.378       .  A
C3171      C3172   1.386       .  A
C3172      C3173   1.408       .  A
C3172      S3178   1.712       .  A
C3173      C3174   1.408       .  A
C3173      H3182   1.083       .  S
C3174      C3177   1.379       .  A
S3175      C3176   1.725   1_554  A
C3176      C3177   1.392       .  A
C3177      H3183   1.083       .  S
S3178      C3179   1.729       .  A
C3179      C3180   1.391       .  A
C3180      H3184   1.083   1_556  S
C3185      C3190   1.387       .  A
C3185      C3186   1.402       .  A
C3185      S3191   1.703       .  A
C3186      C3187   1.402       .  A
C3186      H3197   1.083       .  S
C3187      C3196   1.373       .  A
C3187      C3188   1.387       .  A
C3188      C3189   1.402       .  A
C3188      S3194   1.703       .  A
C3189      C3190   1.401       .  A
C3189      H3198   1.083       .  S
C3190      C3193   1.373       .  A
S3191      C3192   1.726       .  A
C3192      C3193   1.386       .  A
C3193      H3199   1.083       .  S
S3194      C3195   1.725       .  A
C3195      C3196   1.386       .  A
C3196      H3200   1.083       .  S
C3201      C3206   1.386       .  A
C3201      C3202   1.404       .  A
C3201      S3207   1.707       .  A
C3202      C3203   1.404       .  A
C3202      H3213   1.083       .  S
C3203      C3212   1.375       .  A
C3203      C3204   1.386       .  A
C3204      C3205   1.408       .  A
C3204      S3210   1.714       .  A
C3205      C3206   1.408       .  A
C3205      H3214   1.083       .  S
C3206      C3209   1.381       .  A
S3207      C3208   1.727       .  A
C3208      C3209   1.392       .  A
C3209      H3215   1.083       .  S
S3210      C3211   1.728       .  A
C3211      C3212   1.390       .  A
C3212      H3216   1.083       .  S
C3217      C3222   1.386       .  A
C3217      C3218   1.404       .  A
C3217      S3223   1.709       .  A
C3218      C3219   1.405       .  A
C3218      H3229   1.083       .  S
C3219      C3228   1.375       .  A
C3219      C3220   1.386       .  A
C3220      C3221   1.406       .  A
C3220      S3226   1.712       .  A
C3221      C3222   1.407       .  A
C3221      H3230   1.083       .  S
C3222      C3225   1.378       .  A
S3223      C3224   1.726       .  A
C3224      C3225   1.391       .  A
C3225      H3231   1.083       .  S
S3226      C3227   1.727       .  A
C3227      C3228   1.390       .  A
C3228      H3232   1.082       .  S
C3233      C3238   1.385       .  A
C3233      C3234   1.404       .  A
C3233      S3239   1.715       .  A
C3234      C3235   1.406       .  A
C3234      H3245   1.083       .  S
C3235      C3244   1.371       .  A
C3235      C3236   1.386       .  A
C3236      C3237   1.402       .  A
C3236      S3242   1.712       .  A
C3237      C3238   1.404       .  A
C3237      H3246   1.083       .  S
C3238      C3241   1.368       .  A
S3239      C3240   1.724       .  A
C3240      C3241   1.391       .  A
C3241      H3247   1.082       .  S
S3242      C3243   1.724       .  A
C3243      C3244   1.391       .  A
C3244      H3248   1.082       .  S
C3249      C3254   1.386       .  A
C3249      C3250   1.406       .  A
C3249      S3255   1.709       .  A
C3250      C3251   1.405       .  A
C3250      H3261   1.083       .  S
C3251      C3260   1.378       .  A
C3251      C3252   1.386       .  A
C3252      C3253   1.408       .  A
C3252      S3258   1.712       .  A
C3253      C3254   1.408       .  A
C3253      H3262   1.083       .  S
C3254      C3257   1.381       .  A
S3255      C3256   1.727       .  A
C3256      C3257   1.393       .  A
C3257      H3263   1.083       .  S
S3258      C3259   1.729       .  A
C3259      C3260   1.391       .  A
C3260      H3264   1.083       .  S
C3265      C3270   1.386       .  A
C3265      C3266   1.404       .  A
C3265      S3271   1.707       .  A
C3266      C3267   1.403       .  A
C3266      H3277   1.083       .  S
C3267      C3276   1.376       .  A
C3267      C3268   1.386       .  A
C3268      C3269   1.407       .  A
C3268      S3274   1.711       .  A
C3269      C3270   1.407       .  A
C3269      H3278   1.083       .  S
C3270      C3273   1.379       .  A
S3271      C3272   1.726       .  A
C3272      C3273   1.391       .  A
C3273      H3279   1.083       .  S
S3274      C3275   1.727       .  A
C3275      C3276   1.388       .  A
C3276      H3280   1.083       .  S
C3281      C3286   1.386       .  A
C3281      C3282   1.408       .  A
C3281      S3287   1.716       .  A
C3282      C3283   1.409       .  A
C3282      H3293   1.083       .  S
C3283      C3292   1.378       .  A
C3283      C3284   1.386       .  A
C3284      C3285   1.403       .  A
C3284      S3290   1.710       .  A
C3285      C3286   1.404       .  A
C3285      H3294   1.083       .  S
C3286      C3289   1.374       .  A
S3287      C3288   1.728       .  A
C3288      C3289   1.390       .  A
C3289      H3295   1.083       .  S
S3290      C3291   1.725       .  A
C3291      C3292   1.393       .  A
C3292      H3296   1.083       .  S
C3297      C3302   1.386       .  A
C3297      C3298   1.405       .  A
C3297      S3303   1.711       .  A
C3298      C3299   1.406       .  A
C3298      H3309   1.083       .  S
C3299      C3308   1.376       .  A
C3299      C3300   1.386       .  A
C3300      C3301   1.405       .  A
C3300      S3306   1.711       .  A
C3301      C3302   1.406       .  A
C3301      H3310   1.083       .  S
C3302      C3305   1.376       .  A
S3303      C3304   1.726       .  A
C3304      C3305   1.391       .  A
C3305      H3311   1.083       .  S
S3306      C3307   1.727       .  A
C3307      C3308   1.391       .  A
C3308      H3312   1.083       .  S
C3313      C3318   1.386       .  A
C3313      C3314   1.406       .  A
C3313      S3319   1.706       .  A
C3314      C3315   1.405       .  A
C3314      H3325   1.083       .  S
C3315      C3324   1.378       .  A
C3315      C3316   1.387       .  A
C3316      C3317   1.403       .  A
C3316      S3322   1.703       .  A
C3317      C3318   1.402       .  A
C3317      H3326   1.083       .  S
C3318      C3321   1.376       .  A
S3319      C3320   1.728       .  A
C3320      C3321   1.387       .  A
C3321      H3327   1.083       .  S
S3322      C3323   1.726       .  A
C3323      C3324   1.389       .  A
C3324      H3328   1.083       .  S
C3329      C3334   1.386   1_554  A
C3329      C3330   1.406       .  A
C3329      S3335   1.709       .  A
C3330      C3331   1.405       .  A
C3330      H3341   1.083       .  S
C3331      C3340   1.377       .  A
C3331      C3332   1.386   1_554  A
C3332      C3333   1.406       .  A
C3332      S3338   1.710       .  A
C3333      C3334   1.406       .  A
C3333      H3342   1.083       .  S
C3334      C3337   1.378       .  A
S3335      C3336   1.727   1_554  A
C3336      C3337   1.391       .  A
C3337      H3343   1.083       .  S
S3338      C3339   1.727       .  A
C3339      C3340   1.390   1_556  A
C3340      H3344   1.083       .  S
C3345      C3350   1.386       .  A
C3345      C3346   1.400       .  A
C3345      S3351   1.709       .  A
C3346      C3347   1.402       .  A
C3346      H3357   1.083       .  S
C3347      C3356   1.368       .  A
C3347      C3348   1.386       .  A
C3348      C3349   1.404       .  A
C3348      S3354   1.713       .  A
C3349      C3350   1.406       .  A
C3349      H3358   1.083       .  S
C3350      C3353   1.371       .  A
S3351      C3352   1.722       .  A
C3352      C3353   1.391       .  A
C3353      H3359   1.082       .  S
S3354      C3355   1.724       .  A
C3355      C3356   1.388       .  A
C3356      H3360   1.083       .  S
C3361      C3366   1.387       .  A
C3361      C3362   1.404       .  A
C3361      S3367   1.704       .  A
C3362      C3363   1.403       .  A
C3362      H3373   1.083       .  S
C3363      C3372   1.376       .  A
C3363      C3364   1.387       .  A
C3364      C3365   1.401       .  A
C3364      S3370   1.700       .  A
C3365      C3366   1.400       .  A
C3365      H3374   1.083       .  S
C3366      C3369   1.372       .  A
S3367      C3368   1.726       .  A
C3368      C3369   1.384       .  A
C3369      H3375   1.083       .  S
S3370      C3371   1.725       .  A
C3371      C3372   1.387       .  A
C3372      H3376   1.083       .  S
C3377      C3382   1.386       .  A
C3377      C3378   1.403       .  A
C3377      S3383   1.711       .  A
C3378      C3379   1.405       .  A
C3378      H3389   1.083       .  S
C3379      C3388   1.370       .  A
C3379      C3380   1.388       .  A
C3380      C3381   1.392       .  A
C3380      S3386   1.698       .  A
C3381      C3382   1.395       .  A
C3381      H3390   1.084       .  S
C3382      C3385   1.359       .  A
S3383      C3384   1.725       .  A
C3384      C3385   1.383       .  A
C3385      H3391   1.082       .  S
S3386      C3387   1.718       .  A
C3387      C3388   1.387       .  A
C3388      H3392   1.083       .  S
C3393      C3398   1.387       .  A
C3393      C3394   1.398       .  A
C3393      S3399   1.702       .  A
C3394      C3395   1.399       .  A
C3394      H3405   1.083       .  S
C3395      C3404   1.366       .  A
C3395      C3396   1.386       .  A
C3396      C3397   1.406       .  A
C3396      S3402   1.713       .  A
C3397      C3398   1.407       .  A
C3397      H3406   1.083       .  S
C3398      C3401   1.376       .  A
S3399      C3400   1.722       .  A
C3400      C3401   1.390       .  A
C3401      H3407   1.083       .  S
S3402      C3403   1.725       .  A
C3403      C3404   1.386       .  A
C3404      H3408   1.082       .  S
C3409      C3414   1.387       .  A
C3409      C3410   1.398       .  A
C3409      S3415   1.700       .  A
C3410      C3411   1.399       .  A
C3410      H3421   1.083       .  S
C3411      C3420   1.367       .  A
C3411      C3412   1.386       .  A
C3412      C3413   1.405       .  A
C3412      S3418   1.710       .  A
C3413      C3414   1.406       .  A
C3413      H3422   1.083       .  S
C3414      C3417   1.375       .  A
S3415      C3416   1.722       .  A
C3416      C3417   1.389       .  A
C3417      H3423   1.083       .  S
S3418      C3419   1.726       .  A
C3419      C3420   1.385       .  A
C3420      H3424   1.082       .  S
C3425      C3430   1.387       .  A
C3425      C3426   1.403       .  A
C3425      S3431   1.701       .  A
C3426      C3427   1.402       .  A
C3426      H3437   1.083       .  S
C3427      C3436   1.377       .  A
C3427      C3428   1.387       .  A
C3428      C3429   1.403       .  A
C3428      S3434   1.700       .  A
C3429      C3430   1.401       .  A
C3429      H3438   1.083       .  S
C3430      C3433   1.375       .  A
S3431      C3432   1.726       .  A
C3432      C3433   1.387       .  A
C3433      H3439   1.083       .  S
S3434      C3435   1.727       .  A
C3435      C3436   1.387       .  A
C3436      H3440   1.083       .  S
C3441      C3446   1.386       .  A
C3441      C3442   1.402       .  A
C3441      S3447   1.712       .  A
C3442      C3443   1.405       .  A
C3442      H3453   1.083       .  S
C3443      C3452   1.370       .  A
C3443      C3444   1.386       .  A
C3444      C3445   1.403       .  A
C3444      S3450   1.713       .  A
C3445      C3446   1.405       .  A
C3445      H3454   1.083       .  S
C3446      C3449   1.370       .  A
S3447      C3448   1.724       .  A
C3448      C3449   1.391       .  A
C3449      H3455   1.082       .  S
S3450      C3451   1.724       .  A
C3451      C3452   1.389       .  A
C3452      H3456   1.082       .  S
C3457      C3462   1.386       .  A
C3457      C3458   1.403       .  A
C3457      S3463   1.706       .  A
C3458      C3459   1.403       .  A
C3458      H3469   1.083       .  S
C3459      C3468   1.374       .  A
C3459      C3460   1.387       .  A
C3460      C3461   1.402       .  A
C3460      S3466   1.703       .  A
C3461      C3462   1.402       .  A
C3461      H3470   1.083       .  S
C3462      C3465   1.372       .  A
S3463      C3464   1.724       .  A
C3464      C3465   1.388       .  A
C3465      H3471   1.082       .  S
S3466      C3467   1.725       .  A
C3467      C3468   1.386       .  A
C3468      H3472   1.083       .  S
C3473      C3478   1.386       .  A
C3473      C3474   1.404       .  A
C3473      S3479   1.711       .  A
C3474      C3475   1.405       .  A
C3474      H3485   1.083       .  S
C3475      C3484   1.373       .  A
C3475      C3476   1.387       .  A
C3476      C3477   1.398       .  A
C3476      S3482   1.702       .  A
C3477      C3478   1.399       .  A
C3477      H3486   1.083       .  S
C3478      C3481   1.365       .  A
S3479      C3480   1.725       .  A
C3480      C3481   1.386       .  A
C3481      H3487   1.082       .  S
S3482      C3483   1.722       .  A
C3483      C3484   1.388       .  A
C3484      H3488   1.082       .  S
C3489      C3494   1.387       .  A
C3489      C3490   1.403       .  A
C3489      S3495   1.702       .  A
C3490      C3491   1.402       .  A
C3490      H3501   1.083       .  S
C3491      C3500   1.375       .  A
C3491      C3492   1.387       .  A
C3492      C3493   1.404       .  A
C3492      S3498   1.704       .  A
C3493      C3494   1.403       .  A
C3493      H3502   1.083       .  S
C3494      C3497   1.377       .  A
S3495      C3496   1.727       .  A
C3496      C3497   1.387       .  A
C3497      H3503   1.083       .  S
S3498      C3499   1.727       .  A
C3499      C3500   1.387       .  A
C3500      H3504   1.083       .  S
C3505      C3510   1.385       .  A
C3505      C3506   1.409       .  A
C3505      S3511   1.718       .  A
C3506      C3507   1.409       .  A
C3506      H3517   1.083       .  S
C3507      C3516   1.378       .  A
C3507      C3508   1.387       .  A
C3508      C3509   1.397       .  A
C3508      S3514   1.701       .  A
C3509      C3510   1.399       .  A
C3509      H3518   1.083       .  S
C3510      C3513   1.366       .  A
S3511      C3512   1.728       .  A
C3512      C3513   1.387       .  A
C3513      H3519   1.082       .  S
S3514      C3515   1.723       .  A
C3515      C3516   1.391       .  A
C3516      H3520   1.082       .  S
C3521      C3526   1.387       .  A
C3521      C3522   1.404       .  A
C3521      S3527   1.706       .  A
C3522      C3523   1.404       .  A
C3522      H3533   1.083       .  S
C3523      C3532   1.376       .  A
C3523      C3524   1.387       .  A
C3524      C3525   1.401       .  A
C3524      S3530   1.702       .  A
C3525      C3526   1.401       .  A
C3525      H3534   1.083       .  S
C3526      C3529   1.372       .  A
S3527      C3528   1.727       .  A
C3528      C3529   1.386       .  A
C3529      H3535   1.083       .  S
S3530      C3531   1.725       .  A
C3531      C3532   1.388       .  A
C3532      H3536   1.083       .  S
C3537      C3542   1.386       .  A
C3537      C3538   1.408       .  A
C3537      S3543   1.714       .  A
C3538      C3539   1.408       .  A
C3538      H3549   1.083       .  S
C3539      C3548   1.378       .  A
C3539      C3540   1.387       .  A
C3540      C3541   1.399       .  A
C3540      S3546   1.702       .  A
C3541      C3542   1.400       .  A
C3541      H3550   1.083       .  S
C3542      C3545   1.369       .  A
S3543      C3544   1.727       .  A
C3544      C3545   1.386       .  A
C3545      H3551   1.083       .  S
S3546      C3547   1.723       .  A
C3547      C3548   1.390       .  A
C3548      H3552   1.083       .  S
C3553      C3558   1.387       .  A
C3553      C3554   1.397       .  A
C3553      S3559   1.699       .  A
C3554      C3555   1.397       .  A
C3554      H3565   1.083       .  S
C3555      C3564   1.366       .  A
C3555      C3556   1.386       .  A
C3556      C3557   1.406       .  A
C3556      S3562   1.712       .  A
C3557      C3558   1.407       .  A
C3557      H3566   1.083       .  S
C3558      C3561   1.377       .  A
S3559      C3560   1.722       .  A
C3560      C3561   1.389       .  A
C3561      H3567   1.083       .  S
S3562      C3563   1.726       .  A
C3563      C3564   1.384       .  A
C3564      H3568   1.083       .  S
C3569      C3574   1.387       .  A
C3569      C3570   1.404       .  A
C3569      S3575   1.704       .  A
C3570      C3571   1.403       .  A
C3570      H3581   1.083       .  S
C3571      C3580   1.376       .  A
C3571      C3572   1.387       .  A
C3572      C3573   1.401       .  A
C3572      S3578   1.700       .  A
C3573      C3574   1.400       .  A
C3573      H3582   1.083       .  S
C3574      C3577   1.373       .  A
S3575      C3576   1.726       .  A
C3576      C3577   1.386       .  A
C3577      H3583   1.083       .  S
S3578      C3579   1.725       .  A
C3579      C3580   1.387       .  A
C3580      H3584   1.083       .  S
C3585      C3590   1.387       .  A
C3585      C3586   1.401       .  A
C3585      S3591   1.699       .  A
C3586      C3587   1.400       .  A
C3586      H3597   1.083       .  S
C3587      C3596   1.374       .  A
C3587      C3588   1.387       .  A
C3588      C3589   1.404       .  A
C3588      S3594   1.703       .  A
C3589      C3590   1.403       .  A
C3589      H3598   1.083       .  S
C3590      C3593   1.376       .  A
S3591      C3592   1.726       .  A
C3592      C3593   1.387       .  A
C3593      H3599   1.083       .  S
S3594      C3595   1.726       .  A
C3595      C3596   1.385       .  A
C3596      H3600   1.083       .  S
C3601      C3606   1.387       .  A
C3601      C3602   1.404       .  A
C3601      S3607   1.708       .  A
C3602      C3603   1.404       .  A
C3602      H3613   1.083       .  S
C3603      C3612   1.374       .  A
C3603      C3604   1.386       .  A
C3604      C3605   1.405       .  A
C3604      S3610   1.709       .  A
C3605      C3606   1.405       .  A
C3605      H3614   1.083       .  S
C3606      C3609   1.376       .  A
S3607      C3608   1.725       .  A
C3608      C3609   1.389       .  A
C3609      H3615   1.083       .  S
S3610      C3611   1.726       .  A
C3611      C3612   1.389       .  A
C3612      H3616   1.082       .  S
C3617      C3622   1.386       .  A
C3617      C3618   1.406       .  A
C3617      S3623   1.711       .  A
C3618      C3619   1.406       .  A
C3618      H3629   1.083       .  S
C3619      C3628   1.377       .  A
C3619      C3620   1.386       .  A
C3620      C3621   1.405       .  A
C3620      S3626   1.709       .  A
C3621      C3622   1.405       .  A
C3621      H3630   1.083       .  S
C3622      C3625   1.376       .  A
S3623      C3624   1.727       .  A
C3624      C3625   1.391       .  A
C3625      H3631   1.083       .  S
S3626      C3627   1.726       .  A
C3627      C3628   1.390       .  A
C3628      H3632   1.083       .  S
C3633      C3638   1.387       .  A
C3633      C3634   1.401       .  A
C3633      S3639   1.701       .  A
C3634      C3635   1.400       .  A
C3634      H3645   1.083       .  S
C3635      C3644   1.372       .  A
C3635      C3636   1.386       .  A
C3636      C3637   1.406       .  A
C3636      S3642   1.708       .  A
C3637      C3638   1.405       .  A
C3637      H3646   1.083       .  S
C3638      C3641   1.378       .  A
S3639      C3640   1.725       .  A
C3640      C3641   1.389       .  A
C3641      H3647   1.083       .  S
S3642      C3643   1.727       .  A
C3643      C3644   1.386       .  A
C3644      H3648   1.082       .  S
C3649      C3654   1.386       .  A
C3649      C3650   1.398       .  A
C3649      S3655   1.706       .  A
C3650      C3651   1.400       .  A
C3650      H3661   1.083       .  S
C3651      C3660   1.365       .  A
C3651      C3652   1.386       .  A
C3652      C3653   1.404       .  A
C3652      S3658   1.713       .  A
C3653      C3654   1.406       .  A
C3653      H3662   1.083       .  S
C3654      C3657   1.371       .  A
S3655      C3656   1.721       .  A
C3656      C3657   1.390       .  A
C3657      H3663   1.082       .  S
S3658      C3659   1.724       .  A
C3659      C3660   1.386       .  A
C3660      H3664   1.082       .  S
C3665      C3670   1.386       .  A
C3665      C3666   1.402       .  A
C3665      S3671   1.707       .  A
C3666      C3667   1.403       .  A
C3666      H3677   1.083       .  S
C3667      C3676   1.373       .  A
C3667      C3668   1.386       .  A
C3668      C3669   1.407       .  A
C3668      S3674   1.713       .  A
C3669      C3670   1.408       .  A
C3669      H3678   1.083       .  S
C3670      C3673   1.378       .  A
S3671      C3672   1.724       .  A
C3672      C3673   1.392       .  A
C3673      H3679   1.083       .  S
S3674      C3675   1.728       .  A
C3675      C3676   1.388       .  A
C3676      H3680   1.083       .  S
C3681      C3686   1.386       .  A
C3681      C3682   1.406       .  A
C3681      S3687   1.713       .  A
C3682      C3683   1.407       .  A
C3682      H3693   1.083       .  S
C3683      C3692   1.376       .  A
C3683      C3684   1.386       .  A
C3684      C3685   1.404       .  A
C3684      S3690   1.711       .  A
C3685      C3686   1.405       .  A
C3685      H3694   1.083       .  S
C3686      C3689   1.374       .  A
S3687      C3688   1.727       .  A
C3688      C3689   1.390       .  A
C3689      H3695   1.083       .  S
S3690      C3691   1.725       .  A
C3691      C3692   1.392       .  A
C3692      H3696   1.083       .  S
C3697      C3702   1.387       .  A
C3697      C3698   1.401       .  A
C3697      S3703   1.698       .  A
C3698      C3699   1.400       .  A
C3698      H3709   1.083       .  S
C3699      C3708   1.372       .  A
C3699      C3700   1.387       .  A
C3700      C3701   1.403       .  A
C3700      S3706   1.702       .  A
C3701      C3702   1.402       .  A
C3701      H3710   1.083       .  S
C3702      C3705   1.375       .  A
S3703      C3704   1.726       .  A
C3704      C3705   1.386       .  A
C3705      H3711   1.083       .  S
S3706      C3707   1.726       .  A
C3707      C3708   1.386       .  A
C3708      H3712   1.083       .  S
C3713      C3718   1.385       .  A
C3713      C3714   1.404       .  A
C3713      S3719   1.716       .  A
C3714      C3715   1.407       .  A
C3714      H3725   1.083       .  S
C3715      C3724   1.371       .  A
C3715      C3716   1.386       .  A
C3716      C3717   1.400       .  A
C3716      S3722   1.710       .  A
C3717      C3718   1.403       .  A
C3717      H3726   1.083       .  S
C3718      C3721   1.367       .  A
S3719      C3720   1.724       .  A
C3720      C3721   1.389       .  A
C3721      H3727   1.082       .  S
S3722      C3723   1.723       .  A
C3723      C3724   1.391       .  A
C3724      H3728   1.082       .  S
C3729      C3734   1.386       .  A
C3729      C3730   1.407       .  A
C3729      S3735   1.713   1_545  A
C3730      C3731   1.407       .  A
C3730      H3741   1.083   1_545  S
C3731      C3740   1.377       .  A
C3731      C3732   1.386       .  A
C3732      C3733   1.404       .  A
C3732      S3738   1.709       .  A
C3733      C3734   1.404       .  A
C3733      H3742   1.083       .  S
C3734      C3737   1.374       .  A
S3735      C3736   1.727   1_565  A
C3736      C3737   1.389       .  A
C3737      H3743   1.083       .  S
S3738      C3739   1.725       .  A
C3739      C3740   1.391       .  A
C3740      H3744   1.083   1_545  S
C3745      C3750   1.386       .  A
C3745      C3746   1.404       .  A
C3745      S3751   1.710       .  A
C3746      C3747   1.405       .  A
C3746      H3757   1.083       .  S
C3747      C3756   1.374       .  A
C3747      C3748   1.386       .  A
C3748      C3749   1.403       .  A
C3748      S3754   1.708       .  A
C3749      C3750   1.404       .  A
C3749      H3758   1.083       .  S
C3750      C3753   1.373       .  A
S3751      C3752   1.726       .  A
C3752      C3753   1.389       .  A
C3753      H3759   1.083       .  S
S3754      C3755   1.726       .  A
C3755      C3756   1.389       .  A
C3756      H3760   1.083       .  S
C3761      C3766   1.387       .  A
C3761      C3762   1.401       .  A
C3761      S3767   1.701       .  A
C3762      C3763   1.400       .  A
C3762      H3773   1.083       .  S
C3763      C3772   1.373       .  A
C3763      C3764   1.386       .  A
C3764      C3765   1.407       .  A
C3764      S3770   1.708       .  A
C3765      C3766   1.406       .  A
C3765      H3774   1.083       .  S
C3766      C3769   1.379       .  A
S3767      C3768   1.725       .  A
C3768      C3769   1.390       .  A
C3769      H3775   1.083       .  S
S3770      C3771   1.728       .  A
C3771      C3772   1.385       .  A
C3772      H3776   1.083       .  S
C3777      C3782   1.387       .  A
C3777      C3778   1.397       .  A
C3777      S3783   1.706       .  A
C3778      C3779   1.400       .  A
C3778      H3789   1.083       .  S
C3779      C3788   1.364       .  A
C3779      C3780   1.386       .  A
C3780      C3781   1.404       .  A
C3780      S3786   1.714       .  A
C3781      C3782   1.406       .  A
C3781      H3790   1.083       .  S
C3782      C3785   1.371       .  A
S3783      C3784   1.720       .  A
C3784      C3785   1.389       .  A
C3785      H3791   1.083       .  S
S3786      C3787   1.725       .  A
C3787      C3788   1.387       .  A
C3788      H3792   1.082       .  S
C3793      C3798   1.386       .  A
C3793      C3794   1.404   1_545  A
C3793      S3799   1.710   1_545  A
C3794      C3795   1.405   1_565  A
C3794      H3805   1.083       .  S
C3795      C3804   1.374       .  A
C3795      C3796   1.386       .  A
C3796      C3797   1.404       .  A
C3796      S3802   1.710       .  A
C3797      C3798   1.404       .  A
C3797      H3806   1.083       .  S
C3798      C3801   1.374       .  A
S3799      C3800   1.726   1_565  A
C3800      C3801   1.389       .  A
C3801      H3807   1.082       .  S
S3802      C3803   1.725       .  A
C3803      C3804   1.389       .  A
C3804      H3808   1.083   1_545  S
C3809      C3814   1.386       .  A
C3809      C3810   1.402       .  A
C3809      S3815   1.713       .  A
C3810      C3811   1.405       .  A
C3810      H3821   1.083       .  S
C3811      C3820   1.369       .  A
C3811      C3812   1.386       .  A
C3812      C3813   1.399       .  A
C3812      S3818   1.708       .  A
C3813      C3814   1.402       .  A
C3813      H3822   1.083       .  S
C3814      C3817   1.365       .  A
S3815      C3816   1.724       .  A
C3816      C3817   1.388       .  A
C3817      H3823   1.082       .  S
S3818      C3819   1.722       .  A
C3819      C3820   1.389       .  A
C3820      H3824   1.082       .  S
C3825      C3830   1.386       .  A
C3825      C3826   1.405       .  A
C3825      S3831   1.709       .  A
C3826      C3827   1.405       .  A
C3826      H3837   1.083       .  S
C3827      C3836   1.375       .  A
C3827      C3828   1.386       .  A
C3828      C3829   1.403       .  A
C3828      S3834   1.707       .  A
C3829      C3830   1.403       .  A
C3829      H3838   1.083       .  S
C3830      C3833   1.373       .  A
S3831      C3832   1.727       .  A
C3832      C3833   1.388       .  A
C3833      H3839   1.083       .  S
S3834      C3835   1.725       .  A
C3835      C3836   1.390       .  A
C3836      H3840   1.083       .  S
C3841      C3846   1.387       .  A
C3841      C3842   1.402       .  A
C3841      S3847   1.706       .  A
C3842      C3843   1.402       .  A
C3842      H3853   1.083       .  S
C3843      C3852   1.373       .  A
C3843      C3844   1.386       .  A
C3844      C3845   1.406       .  A
C3844      S3850   1.711       .  A
C3845      C3846   1.406       .  A
C3845      H3854   1.083       .  S
C3846      C3849   1.377       .  A
S3847      C3848   1.724       .  A
C3848      C3849   1.391       .  A
C3849      H3855   1.083       .  S
S3850      C3851   1.727       .  A
C3851      C3852   1.388       .  A
C3852      H3856   1.083       .  S
C3857      C3862   1.387       .  A
C3857      C3858   1.407       .  A
C3857      S3863   1.707       .  A
C3858      C3859   1.406       .  A
C3858      H3869   1.083       .  S
C3859      C3868   1.380       .  A
C3859      C3860   1.387       .  A
C3860      C3861   1.401       .  A
C3860      S3866   1.700       .  A
C3861      C3862   1.400       .  A
C3861      H3870   1.083       .  S
C3862      C3865   1.375       .  A
S3863      C3864   1.729       .  A
C3864      C3865   1.386       .  A
C3865      H3871   1.083       .  S
S3866      C3867   1.725       .  A
C3867      C3868   1.389       .  A
C3868      H3872   1.083       .  S
C3873      C3878   1.386       .  A
C3873      C3874   1.403       .  A
C3873      S3879   1.707       .  A
C3874      C3875   1.403       .  A
C3874      H3885   1.083       .  S
C3875      C3884   1.375       .  A
C3875      C3876   1.386       .  A
C3876      C3877   1.406       .  A
C3876      S3882   1.710       .  A
C3877      C3878   1.406       .  A
C3877      H3886   1.083       .  S
C3878      C3881   1.377       .  A
S3879      C3880   1.725       .  A
C3880      C3881   1.391       .  A
C3881      H3887   1.083       .  S
S3882      C3883   1.727       .  A
C3883      C3884   1.389       .  A
C3884      H3888   1.083       .  S
C3889      C3894   1.386       .  A
C3889      C3890   1.402       .  A
C3889      S3895   1.707       .  A
C3890      C3891   1.402       .  A
C3890      H3901   1.083       .  S
C3891      C3900   1.372       .  A
C3891      C3892   1.386       .  A
C3892      C3893   1.405       .  A
C3892      S3898   1.711       .  A
C3893      C3894   1.406       .  A
C3893      H3902   1.083       .  S
C3894      C3897   1.375       .  A
S3895      C3896   1.724       .  A
C3896      C3897   1.391       .  A
C3897      H3903   1.083       .  S
S3898      C3899   1.726       .  A
C3899      C3900   1.388       .  A
C3900      H3904   1.083       .  S
C3905      C3910   1.387       .  A
C3905      C3906   1.401       .  A
C3905      S3911   1.706       .  A
C3906      C3907   1.402       .  A
C3906      H3917   1.083       .  S
C3907      C3916   1.371       .  A
C3907      C3908   1.386       .  A
C3908      C3909   1.405       .  A
C3908      S3914   1.711       .  A
C3909      C3910   1.405       .  A
C3909      H3918   1.083       .  S
C3910      C3913   1.375       .  A
S3911      C3912   1.724       .  A
C3912      C3913   1.389       .  A
C3913      H3919   1.083       .  S
S3914      C3915   1.726       .  A
C3915      C3916   1.387       .  A
C3916      H3920   1.083       .  S
C3921      C3926   1.386       .  A
C3921      C3922   1.409       .  A
C3921      S3927   1.709       .  A
C3922      C3923   1.407       .  A
C3922      H3933   1.083       .  S
C3923      C3932   1.382       .  A
C3923      C3924   1.387       .  A
C3924      C3925   1.400       .  A
C3924      S3930   1.697       .  A
C3925      C3926   1.398       .  A
C3925      H3934   1.083       .  S
C3926      C3929   1.373       .  A
S3927      C3928   1.729       .  A
C3928      C3929   1.385       .  A
C3929      H3935   1.083       .  S
S3930      C3931   1.725       .  A
C3931      C3932   1.391       .  A
C3932      H3936   1.083       .  S
C3937      C3942   1.387       .  A
C3937      C3938   1.403       .  A
C3937      S3943   1.702       .  A
C3938      C3939   1.402       .  A
C3938      H3949   1.083       .  S
C3939      C3948   1.375       .  A
C3939      C3940   1.387       .  A
C3940      C3941   1.401       .  A
C3940      S3946   1.699       .  A
C3941      C3942   1.399       .  A
C3941      H3950   1.083       .  S
C3942      C3945   1.372       .  A
S3943      C3944   1.726       .  A
C3944      C3945   1.385       .  A
C3945      H3951   1.083       .  S
S3946      C3947   1.725       .  A
C3947      C3948   1.387       .  A
C3948      H3952   1.083       .  S
C3953      C3958   1.386       .  A
C3953      C3954   1.406       .  A
C3953      S3959   1.714       .  A
C3954      C3955   1.407       .  A
C3954      H3965   1.083       .  S
C3955      C3964   1.376       .  A
C3955      C3956   1.387       .  A
C3956      C3957   1.397       .  A
C3956      S3962   1.700       .  A
C3957      C3958   1.398       .  A
C3957      H3966   1.083       .  S
C3958      C3961   1.366       .  A
S3959      C3960   1.726       .  A
C3960      C3961   1.385       .  A
C3961      H3967   1.082       .  S
S3962      C3963   1.723       .  A
C3963      C3964   1.390       .  A
C3964      H3968   1.083       .  S
C3969      C3974   1.385       .  A
C3969      C3970   1.405       .  A
C3969      S3975   1.716       .  A
C3970      C3971   1.408       .  A
C3970      H3981   1.083       .  S
C3971      C3980   1.373       .  A
C3971      C3972   1.386       .  A
C3972      C3973   1.401       .  A
C3972      S3978   1.710       .  A
C3973      C3974   1.403       .  A
C3973      H3982   1.083       .  S
C3974      C3977   1.368       .  A
S3975      C3976   1.726       .  A
C3976      C3977   1.390       .  A
C3977      H3983   1.082       .  S
S3978      C3979   1.723       .  A
C3979      C3980   1.392       .  A
C3980      H3984   1.082       .  S
C3985      C3990   1.386       .  A
C3985      C3986   1.399       .  A
C3985      S3991   1.706       .  A
C3986      C3987   1.401       .  A
C3986      H3997   1.083       .  S
C3987      C3996   1.368       .  A
C3987      C3988   1.385       .  A
C3988      C3989   1.408       .  A
C3988      S3994   1.717       .  A
C3989      C3990   1.409       .  A
C3989      H3998   1.083       .  S
C3990      C3993   1.376       .  A
S3991      C3992   1.721       .  A
C3992      C3993   1.393       .  A
C3993      H3999   1.083       .  S
S3994      C3995   1.728       .  A
C3995      C3996   1.389       .  A
C3996      H4000   1.082       .  S
C4001      C4006   1.386       .  A
C4001      C4002   1.409       .  A
C4001      S4007   1.716       .  A
C4002      C4003   1.409       .  A
C4002      H4013   1.083       .  S
C4003      C4012   1.379       .  A
C4003      C4004   1.387       .  A
C4004      C4005   1.398       .  A
C4004      S4010   1.701       .  A
C4005      C4006   1.399       .  A
C4005      H4014   1.083       .  S
C4006      C4009   1.367       .  A
S4007      C4008   1.728       .  A
C4008      C4009   1.386       .  A
C4009      H4015   1.082       .  S
S4010      C4011   1.722       .  A
C4011      C4012   1.392       .  A
C4012      H4016   1.083       .  S
C4017      C4022   1.387       .  A
C4017      C4018   1.395       .  A
C4017      S4023   1.697       .  A
C4018      C4019   1.396       .  A
C4018      H4029   1.083       .  S
C4019      C4028   1.364       .  A
C4019      C4020   1.386       .  A
C4020      C4021   1.407       .  A
C4020      S4026   1.713       .  A
C4021      C4022   1.407       .  A
C4021      H4030   1.083       .  S
C4022      C4025   1.376       .  A
S4023      C4024   1.721       .  A
C4024      C4025   1.390       .  A
C4025      H4031   1.083       .  S
S4026      C4027   1.726       .  A
C4027      C4028   1.384       .  A
C4028      H4032   1.082       .  S
C4033      C4038   1.385       .  A
C4033      C4034   1.405       .  A
C4033      S4039   1.716       .  A
C4034      C4035   1.408       .  A
C4034      H4045   1.083       .  S
C4035      C4044   1.373       .  A
C4035      C4036   1.386       .  A
C4036      C4037   1.398       .  A
C4036      S4042   1.706       .  A
C4037      C4038   1.401       .  A
C4037      H4046   1.083       .  S
C4038      C4041   1.365       .  A
S4039      C4040   1.726       .  A
C4040      C4041   1.389       .  A
C4041      H4047   1.082       .  S
S4042      C4043   1.722       .  A
C4043      C4044   1.391       .  A
C4044      H4048   1.082       .  S
C4049      C4054   1.387       .  A
C4049      C4050   1.404       .  A
C4049      S4055   1.704       .  A
C4050      C4051   1.403       .  A
C4050      H4061   1.083       .  S
C4051      C4060   1.376       .  A
C4051      C4052   1.386       .  A
C4052      C4053   1.405       .  A
C4052      S4058   1.707       .  A
C4053      C4054   1.404       .  A
C4053      H4062   1.083       .  S
C4054      C4057   1.378       .  A
S4055      C4056   1.727       .  A
C4056      C4057   1.389       .  A
C4057      H4063   1.083       .  S
S4058      C4059   1.727       .  A
C4059      C4060   1.388       .  A
C4060      H4064   1.083       .  S
C4065      C4070   1.385       .  A
C4065      C4066   1.409       .  A
C4065      S4071   1.716       .  A
C4066      C4067   1.409       .  A
C4066      H4077   1.083       .  S
C4067      C4076   1.380       .  A
C4067      C4068   1.386       .  A
C4068      C4069   1.400       .  A
C4068      S4074   1.704       .  A
C4069      C4070   1.401       .  A
C4069      H4078   1.083       .  S
C4070      C4073   1.370       .  A
S4071      C4072   1.728       .  A
C4072      C4073   1.388       .  A
C4073      H4079   1.082       .  S
S4074      C4075   1.724       .  A
C4075      C4076   1.392       .  A
C4076      H4080   1.082       .  S
C4081      C4086   1.386       .  A
C4081      C4082   1.406       .  A
C4081      S4087   1.712       .  A
C4082      C4083   1.407       .  A
C4082      H4093   1.083       .  S
C4083      C4092   1.375       .  A
C4083      C4084   1.387       .  A
C4084      C4085   1.398       .  A
C4084      S4090   1.702       .  A
C4085      C4086   1.399       .  A
C4085      H4094   1.083       .  S
C4086      C4089   1.367       .  A
S4087      C4088   1.726       .  A
C4088      C4089   1.386       .  A
C4089      H4095   1.082       .  S
S4090      C4091   1.723       .  A
C4091      C4092   1.390       .  A
C4092      H4096   1.082       .  S
C4097      C4102   1.387       .  A
C4097      C4098   1.402       .  A
C4097      S4103   1.701       .  A
C4098      C4099   1.401       .  A
C4098      H4109   1.083       .  S
C4099      C4108   1.374       .  A
C4099      C4100   1.387       .  A
C4100      C4101   1.402       .  A
C4100      S4106   1.702       .  A
C4101      C4102   1.401       .  A
C4101      H4110   1.083       .  S
C4102      C4105   1.374       .  A
S4103      C4104   1.726       .  A
C4104      C4105   1.386       .  A
C4105      H4111   1.083       .  S
S4106      C4107   1.724       .  A
C4107      C4108   1.387       .  A
C4108      H4112   1.083       .  S
C4113      C4118   1.387       .  A
C4113      C4114   1.398       .  A
C4113      S4119   1.702       .  A
C4114      C4115   1.399       .  A
C4114      H4125   1.083       .  S
C4115      C4124   1.368       .  A
C4115      C4116   1.386       .  A
C4116      C4117   1.407       .  A
C4116      S4122   1.713       .  A
C4117      C4118   1.408       .  A
C4117      H4126   1.083       .  S
C4118      C4121   1.378       .  A
S4119      C4120   1.721       .  A
C4120      C4121   1.390       .  A
C4121      H4127   1.083       .  S
S4122      C4123   1.727       .  A
C4123      C4124   1.386       .  A
C4124      H4128   1.082       .  S
C4129      C4134   1.386       .  A
C4129      C4130   1.401       .  A
C4129      S4135   1.709       .  A
C4130      C4131   1.403       .  A
C4130      H4141   1.083       .  S
C4131      C4140   1.368       .  A
C4131      C4132   1.386       .  A
C4132      C4133   1.400       .  A
C4132      S4138   1.708       .  A
C4133      C4134   1.402       .  A
C4133      H4142   1.083       .  S
C4134      C4137   1.367       .  A
S4135      C4136   1.723       .  A
C4136      C4137   1.388       .  A
C4137      H4143   1.082       .  S
S4138      C4139   1.722       .  A
C4139      C4140   1.388       .  A
C4140      H4144   1.082       .  S
C4145      C4150   1.386       .  A
C4145      C4146   1.407       .  A
C4145      S4151   1.713       .  A
C4146      C4147   1.407       .  A
C4146      H4157   1.083       .  S
C4147      C4156   1.378       .  A
C4147      C4148   1.387       .  A
C4148      C4149   1.400       .  A
C4148      S4154   1.702       .  A
C4149      C4150   1.400       .  A
C4149      H4158   1.083       .  S
C4150      C4153   1.370       .  A
S4151      C4152   1.727       .  A
C4152      C4153   1.387       .  A
C4153      H4159   1.082       .  S
S4154      C4155   1.724       .  A
C4155      C4156   1.390       .  A
C4156      H4160   1.083       .  S
C4161      C4166   1.387       .  A
C4161      C4162   1.400       .  A
C4161      S4167   1.702       .  A
C4162      C4163   1.401       .  A
C4162      H4173   1.083       .  S
C4163      C4172   1.369       .  A
C4163      C4164   1.386       .  A
C4164      C4165   1.402       .  A
C4164      S4170   1.706       .  A
C4165      C4166   1.402       .  A
C4165      H4174   1.083       .  S
C4166      C4169   1.371       .  A
S4167      C4168   1.724       .  A
C4168      C4169   1.386       .  A
C4169      H4175   1.083       .  S
S4170      C4171   1.723       .  A
C4171      C4172   1.387       .  A
C4172      H4176   1.082       .  S
