geometry optimzed in LAMMPS
_audit_creation_date              2020-11-30 
_audit_creation_method            'lammps2cif' 
_symmetry_space_group_name_H-M    'P1' 
_symmetry_Int_Tables_number       1 
_symmetry_cell_setting            triclinic 
loop_ 
_symmetry_equiv_pos_as_xyz 
  x,y,z 
_cell_length_a                    34.30975966 
_cell_length_b                    36.89457079745179 
_cell_length_c                    37.617820845641575 
_cell_angle_alpha                 90.21116684154215 
_cell_angle_beta                  90.0022130672586 
_cell_angle_gamma                 90.00290591361578 
loop_ 
_atom_site_label 
_atom_site_type_symbol 
_atom_site_fract_x 
_atom_site_fract_y 
_atom_site_fract_z 
_atom_site_charge 
C1          C  0.44776388  0.44179350  0.39257351     0.79200
N2          N  0.40995900  0.44970700  0.39963867    -0.79100
C3          C  0.39130039  0.43383974  0.42734352     0.81600
N4          N  0.41054501  0.40962335  0.44775477    -0.79100
C5          C  0.44840298  0.40167886  0.44100685     0.81700
N6          N  0.46712247  0.41764032  0.41329230    -0.80800
C7          C  0.42868496  0.37000967  0.12081354     0.79200
N8          N  0.39841833  0.35295286  0.13689549    -0.79100
C9          C  0.38095149  0.36734714  0.16573333     0.81600
N10         N  0.39386191  0.39933047  0.17878378    -0.79100
C11         C  0.42357234  0.41746062  0.16301191     0.81700
N12         N  0.44179860  0.40235388  0.13415294    -0.80800
Zr13       Zr  0.02251087  0.19555519  0.99707391     2.17500
O14         O  0.50551475  0.13208153  0.00584912    -0.52400
O15         O  0.06381832  0.17431644  0.44756276    -0.75600
O16         O  0.46450517  0.17828838  0.46297961    -0.82400
O17         O  0.09149986  0.19348914  0.07755679    -0.82900
O18         O  0.45987972  0.22516595  0.42548884    -0.79700
O19         O  0.05750275  0.15713889  0.03952591    -0.91400
O20         O  0.10369518  0.22133068  0.43387511    -0.77300
O21         O  0.02636921  0.24170143  0.45286339    -0.86800
O22         O  0.08062161  0.22926717  0.00841860    -0.86500
O23         O  0.46459440  0.23226203  0.00650206    -0.73300
O24         O  0.01544533  0.22078320  0.05606830    -0.85400
Zr25       Zr  0.02160069  0.33877153  0.02987591     2.26400
Zr26       Zr  0.46963406  0.27823518  0.46201931     2.06300
Zr27       Zr  0.07322620  0.25512315  0.06645563     2.10000
Zr28       Zr  0.08390309  0.27539836  0.46469022     1.78800
O29         O  0.06859514  0.23936336  0.12917358    -0.94200
O30         O  0.07873793  0.28976847  0.40164197    -0.42000
O31         O  0.07861432  0.30163928  0.02247723    -0.78600
O32         O  0.02778218  0.31318152  0.47090739    -0.97300
O33         O  0.46296024  0.30535979  0.01951094    -0.90600
O34         O  0.01753602  0.29319123  0.07483964    -0.93500
C35         C  0.09192295  0.18866903  0.42982063     1.00300
C36         C  0.08144392  0.16252997  0.06534798     1.13200
C37         C  0.44712138  0.19534154  0.43787081     1.04000
O38         O  0.45840794  0.29333470  0.39990494    -0.95600
O39         O  0.45422517  0.33997940  0.44837528    -0.91400
O40         O  0.48973408  0.37666961  0.48491822    -0.84500
C41         C  0.46567591  0.37102905  0.45924151     1.10600
O42         O  0.42396592  0.20614343  0.08311910    -0.97600
Zr43       Zr  0.45995931  0.25963070  0.06377636     1.88900
O44         O  0.47935244  0.36239039  0.07723840    -0.74300
O45         O  0.39927009  0.27272921  0.46890910    -0.53500
O46         O  0.39051691  0.26355928  0.05060814    -0.98200
O47         O  0.46594988  0.24655656  0.12705116    -0.55400
O48         O  0.43934859  0.31557876  0.09123526    -0.74800
C49         C  0.45049640  0.34860197  0.09424295     0.97600
O50         O  0.03684504  0.40331195  0.52820465    -0.63600
O51         O  0.14427482  0.25749989  0.06720258    -0.58400
O52         O  0.08527170  0.35145926  0.05765593    -0.95100
O53         O  0.09092211  0.30829415  0.09937977    -0.93500
O54         O  0.15311424  0.27114906  0.47843775    -0.93900
O55         O  0.12016188  0.32940742  0.44771000    -0.92600
C56         C  0.10292701  0.33697049  0.08427316     1.16400
H57         H  0.10334932  0.21380886  0.00724016     0.32400
H58         H  0.03027091  0.33172692  0.45302422     0.43200
H59         H  0.01739654  0.30358404  0.09843914     0.36700
H60         H  0.44046267  0.21907503  0.00415177     0.33200
H61         H  0.10427131  0.28284667  0.39137396     0.25000
H62         H  0.39060665  0.29706967  0.47676839     0.30900
H63         H  0.37838134  0.27284362  0.07272786     0.36900
H64         H  0.16563912  0.26409734  0.45572570     0.31300
H65         H  0.15171831  0.24869023  0.09108789     0.30200
H66         H  0.09551593  0.24167540  0.13840203     0.31900
H67         H  0.47623028  0.26900627  0.13805874     0.30800
H68         H  0.10829457  0.34922945  0.46184087     0.34800
H69         H  0.04304540  0.41022374  0.55302553     0.27600
H70         H  0.50467293  0.12123723  0.98174735     0.31800
H71         H  0.40509092  0.21471697  0.10122001     0.34700
H72         H  0.15277904  0.23803438  0.05076923     0.27300
H73         H  0.06194211  0.40501887  0.51530386     0.40100
H74         H  0.48472977  0.29814604  0.39021342     0.30200
H75         H  0.06026278  0.27164610  0.39192483     0.37800
H76         H  0.48766848  0.22897861  0.12865810     0.29700
H77         H  0.38923059  0.27039783  0.44432863     0.29700
H78         H  0.47810763  0.13220529  0.01411687     0.30000
C79         C  0.35084868  0.19557644  0.39412630     0.79200
N80         N  0.38929788  0.20165497  0.40034413    -0.79100
C81         C  0.40821238  0.18348443  0.42652325     0.81600
N82         N  0.38851232  0.15872909  0.44610944    -0.79100
C83         C  0.35001186  0.15272200  0.44025171     0.81700
N84         N  0.33118036  0.17104031  0.41412431    -0.80800
Zr85       Zr  0.27238213  0.08874538  0.02541682     2.17500
O86         O  0.25532824  0.15223325  0.51673201    -0.52400
O87         O  0.31362060  0.10996984  0.07498205    -0.75600
O88         O  0.21432490  0.10599880  0.05934114    -0.82400
O89         O  0.34160727  0.09086972  0.44522686    -0.84100
O90         O  0.20987289  0.05914119  0.09686208    -0.79700
O91         O  0.30734911  0.12725286  0.48302045    -0.91400
O92         O  0.35360779  0.06301962  0.08860490    -0.77300
O93         O  0.27620002  0.04258989  0.06964163    -0.86800
O94         O  0.33054936  0.05509701  0.01420849    -0.86500
O95         O  0.21454363  0.05191701  0.01594037    -0.73300
O96         O  0.26551347  0.06351609  0.46641644    -0.85400
Zr97       Zr  0.27161963  0.44543207  0.99261772     2.26400
Zr98       Zr  0.21953991  0.00596537  0.06043507     2.06300
Zr99       Zr  0.32331454  0.02919048  0.45618139     2.10000
Zr100      Zr  0.33377518  0.00893216  0.05789204     1.78800
O101        O  0.31825906  0.04477726  0.39346049    -0.94200
O102        O  0.32861031  0.99477794  0.12098780    -0.42000
O103        O  0.32859216  0.48262102  0.00013819    -0.78600
O104        O  0.27772721  0.47104620  0.05158058    -0.97300
O105        O  0.21298474  0.47886011  0.00292055    -0.90600
O106        O  0.26770550  0.49103493  0.44768354    -0.93500
C107        C  0.34177568  0.09565211  0.09268817     1.00300
C108        C  0.33144249  0.12184600  0.45731934     1.13200
C109        C  0.19703257  0.08893654  0.08448121     1.04000
O110        O  0.20783917  0.49104974  0.12253300    -0.95600
O111        O  0.20441287  0.44422440  0.07433158    -0.91400
O112        O  0.23936372  0.40752261  0.03735594    -0.84500
C113        C  0.21557722  0.41316959  0.06324333     1.10600
O114        O  0.17402211  0.07812377  0.43964312    -0.97600
Zr115      Zr  0.21011834  0.02459225  0.45864473     1.88900
O116        O  0.22948990  0.42185581  0.44512850    -0.74300
O117        O  0.14919009  0.01127277  0.05324800    -0.53500
O118        O  0.14058142  0.02074610  0.47133989    -0.98200
O119        O  0.21662821  0.03787785  0.39545468    -0.55400
O120        O  0.18945422  0.46866358  0.43120215    -0.74800
C121        C  0.20059709  0.43564400  0.42817397     0.97600
O122        O  0.28693142  0.38090786  0.99453248    -0.63600
O123        O  0.39437382  0.02711424  0.45501876    -0.58400
O124        O  0.33531479  0.43272988  0.46487872    -0.95100
O125        O  0.34115452  0.47604931  0.42331237    -0.93500
O126        O  0.40287724  0.01317484  0.04369021    -0.93900
O127        O  0.37018042  0.45519473  0.07538753    -0.92600
C128        C  0.35306669  0.44730885  0.43835859     1.16400
H129        H  0.35325736  0.07058122  0.01542456     0.32400
H130        H  0.28022324  0.45246961  0.06943230     0.43200
H131        H  0.26763347  0.48063596  0.42408686     0.36700
H132        H  0.19037604  0.06505226  0.01824821     0.33200
H133        H  0.35435034  0.00119855  0.13114165     0.25000
H134        H  0.14065071  0.48692865  0.04528100     0.30900
H135        H  0.12857673  0.01171816  0.44905901     0.36900
H136        H  0.41569638  0.01928993  0.06652430     0.31300
H137        H  0.40164261  0.03680005  0.43141897     0.30200
H138        H  0.34522069  0.04300336  0.38422291     0.31900
H139        H  0.22748936  0.01563831  0.38450630     0.30800
H140        H  0.36101321  0.43593586  0.05900644     0.34800
H141        H  0.29272981  0.37383723  0.96967362     0.27600
H142        H  0.25431748  0.16302600  0.54085103     0.31800
H143        H  0.15565028  0.06974265  0.42103174     0.34700
H144        H  0.40288984  0.04602069  0.47206577     0.27300
H145        H  0.31223468  0.37928974  0.00710585     0.40100
H146        H  0.23410456  0.98647734  0.13246404     0.30200
H147        H  0.31061733  0.01328547  0.13075765     0.37800
H148        H  0.23799897  0.05584520  0.39409605     0.29700
H149        H  0.13901176  0.01350333  0.07778923     0.29700
H150        H  0.22797811  0.15211041  0.50830453     0.30000
C151        C  0.10088171  0.08867593  0.12837569     0.79200
N152        N  0.13930840  0.08257561  0.12209033    -0.79100
C153        C  0.15817838  0.10078424  0.09591458     0.81600
N154        N  0.13847919  0.12560792  0.07642126    -0.79100
C155        C  0.10000924  0.13164103  0.08236118     0.81700
N156        N  0.08120396  0.11327670  0.10846739    -0.80800
C157        C  0.17871674  0.41424405  0.40165370     0.79200
N158        N  0.14846277  0.43132858  0.38558439    -0.79100
C159        C  0.13096024  0.41694649  0.35676158     0.81600
N160        N  0.14381089  0.38493378  0.34372297    -0.79100
C161        C  0.17348674  0.36676199  0.35951207     0.81700
N162        N  0.19175577  0.38186893  0.38834397    -0.80800
Zr163      Zr  0.00465819  0.02036364  0.19108831     2.17500
O164        O  0.01596798  0.50527098  0.12866946    -0.52400
O165        O  0.45325851  0.06321036  0.17368292    -0.75600
O166        O  0.46438768  0.46995161  0.16858203    -0.82400
O167        O  0.10023958  0.07374144  0.18857019    -0.84100
O168        O  0.43499377  0.44601122  0.21731520    -0.79700
O169        O  0.04869857  0.05640060  0.15439621    -0.91400
O170        O  0.44235836  0.10159317  0.22000029    -0.77300
O171        O  0.45634932  0.02486665  0.23653790    -0.86800
O172        O  0.02098044  0.07231911  0.22594218    -0.86500
O173        O  0.01213161  0.46569666  0.22545071    -0.73300
O174        O  0.06928548  0.00982239  0.21437532    -0.85400
Zr175      Zr  0.04252605  0.01296932  0.33062840     2.26400
Zr176      Zr  0.46368221  0.47095106  0.27103271     2.06300
Zr177      Zr  0.08445692  0.06155443  0.25002912     2.10000
Zr178      Zr  0.47336278  0.07632758  0.27169259     1.78800
O179        O  0.15403515  0.04889030  0.24701459    -0.94200
O180        O  0.40435398  0.07314729  0.28636047    -0.42000
O181        O  0.03659410  0.06658644  0.29556181    -0.78600
O182        O  0.47775929  0.02287265  0.30748461    -0.97300
O183        O  0.02683547  0.46084572  0.29591062    -0.90600
O184        O  0.09153220  0.00850529  0.28556079    -0.93500
C185        C  0.43703269  0.09122525  0.18788477     1.00300
C186        C  0.08203325  0.07161656  0.15891750     1.13200
C187        C  0.44148509  0.44710226  0.18370722     1.04000
O188        O  0.39413714  0.48129980  0.27912181    -0.95600
O189        O  0.44938644  0.45402701  0.33165860    -0.91400
O190        O  0.49804579  0.47636821  0.36659894    -0.84500
C191        C  0.46652783  0.45823355  0.36166108     1.10600
O192        O  0.09581820  0.42866808  0.19502820    -0.97600
Zr193      Zr  0.07485837  0.45672175  0.25064827     1.88900
O194        O  0.09225350  0.46936939  0.34837237    -0.74300
O195        O  0.45808196  0.40534359  0.27654980    -0.53500
O196        O  0.05345028  0.39380550  0.24670828    -0.98200
O197        O  0.14547767  0.45583667  0.24340545    -0.55400
O198        O  0.09742318  0.42780110  0.30399345    -0.74800
C199        C  0.10457328  0.43919420  0.33543497     0.97600
O200        O  0.54282921  0.03106364  0.39312530    -0.63600
O201        O  0.09642886  0.12612969  0.24268079    -0.58400
O202        O  0.07602055  0.06808345  0.35231331    -0.95100
O203        O  0.10553985  0.09211892  0.30369568    -0.93500
O204        O  0.49199234  0.14003049  0.27160613    -0.93900
O205        O  0.45933458  0.10885098  0.32668585    -0.92600
C206        C  0.09791861  0.09183912  0.33711522     1.16400
H207        H  0.02088706  0.09404185  0.21162289     0.32400
H208        H  0.45914629  0.02495531  0.32663874     0.43200
H209        H  0.11745034  0.00707282  0.29559976     0.36700
H210        H  0.00850625  0.44410086  0.21130455     0.33200
H211        H  0.39391173  0.09705559  0.27935985     0.25000
H212        H  0.42993993  0.40019177  0.27359677     0.30900
H213        H  0.07641020  0.37921833  0.25371238     0.36900
H214        H  0.46746458  0.15338545  0.26706397     0.31300
H215        H  0.12170143  0.12741390  0.23005888     0.30200
H216        H  0.16658413  0.07072348  0.25725131     0.31900
H217        H  0.15641612  0.46100840  0.26723812     0.30800
H218        H  0.47418937  0.09566189  0.34513511     0.34800
H219        H  0.51528389  0.03603557  0.39932263     0.27600
H220        H  0.99023576  0.50664026  0.11681088     0.31800
H221        H  0.11262398  0.40798945  0.20180678     0.34700
H222        H  0.07695613  0.13442005  0.22507763     0.27300
H223        H  0.54978678  0.00897272  0.40659116     0.40100
H224        H  0.38414226  0.48703579  0.25509894     0.30200
H225        H  0.39317480  0.05615165  0.26868814     0.37800
H226        H  0.15145236  0.47766685  0.22920665     0.29700
H227        H  0.47045637  0.39529369  0.25487353     0.29700
H228        H  0.02319544  0.47928197  0.12816245     0.30000
C229        C  0.36205755  0.11594749  0.12117916     0.79200
N230        N  0.39233639  0.09877532  0.13743356    -0.79100
C231        C  0.40888010  0.11260352  0.16707705     0.81600
N232        N  0.39486234  0.14395985  0.18070781    -0.79100
C233        C  0.36504083  0.16204432  0.16497109     0.81700
N234        N  0.34796869  0.14768533  0.13518726    -0.80800
C235        C  0.11220727  0.16836718  0.40133018     0.79200
N236        N  0.09810099  0.13664370  0.38728809    -0.79100
C237        C  0.11517252  0.12228674  0.35749952     0.81600
N238        N  0.14502607  0.14036078  0.34180209    -0.79100
C239        C  0.15905072  0.17170435  0.35546876     0.81700
N240        N  0.14250180  0.18552900  0.38510486    -0.80800
C241        C  0.19768069  0.34248531  0.12998470     0.79200
N242        N  0.21702856  0.36660731  0.10922509    -0.79100
C243        C  0.19829867  0.38253297  0.08149919     0.81600
N244        N  0.16042341  0.37460861  0.07480329    -0.79100
C245        C  0.14117920  0.35042978  0.09526415     0.81700
N246        N  0.15985943  0.33458067  0.12296770    -0.80800
Zr247      Zr  0.25469858  0.26395677  0.33143541     2.17500
O248        O  0.26625829  0.27937980  0.39373197    -0.52400
O249        O  0.20325443  0.22120802  0.34885793    -0.75600
O250        O  0.21424737  0.31423107  0.35397030    -0.82400
O251        O  0.35032006  0.21088322  0.33401050    -0.84100
O252        O  0.18498349  0.33825971  0.30522044    -0.79700
O253        O  0.29845850  0.22757912  0.36807889    -0.91400
O254        O  0.19264488  0.18265476  0.30262613    -0.77300
O255        O  0.20639983  0.25939223  0.28601708    -0.86800
O256        O  0.27111741  0.21197692  0.29662167    -0.86500
O257        O  0.26209074  0.31865763  0.29708332    -0.73300
O258        O  0.31928669  0.27451681  0.30808921    -0.85400
Zr259      Zr  0.29250249  0.27134534  0.19189489     2.26400
Zr260      Zr  0.21363517  0.31329897  0.25151578     2.06300
Zr261      Zr  0.33455727  0.22279904  0.27247921     2.10000
Zr262      Zr  0.22349652  0.20794694  0.25089560     1.78800
O263        O  0.40413193  0.23557685  0.27509664    -0.94200
O264        O  0.15445083  0.21134512  0.23651323    -0.42000
O265        O  0.28667994  0.21769844  0.22695009    -0.78600
O266        O  0.22777676  0.26138719  0.21506888    -0.97300
O267        O  0.27677459  0.32347479  0.22661901    -0.90600
O268        O  0.34151896  0.27586950  0.23695655    -0.93500
C269        C  0.18718565  0.19310008  0.33469241     1.00300
C270        C  0.33195276  0.21265659  0.36360351     1.13200
C271        C  0.19139091  0.33711192  0.33883295     1.04000
O272        O  0.14422790  0.30203165  0.24364624    -0.95600
O273        O  0.19955624  0.33054969  0.19094338    -0.91400
O274        O  0.24780746  0.30766049  0.15587538    -0.84500
C275        C  0.21648459  0.32606330  0.16088177     1.10600
O276        O  0.34604810  0.35496259  0.32775783    -0.97600
Zr277      Zr  0.32481866  0.32763740  0.27187297     1.88900
O278        O  0.34218862  0.31497007  0.17412945    -0.74300
O279        O  0.20698308  0.37882539  0.24593700    -0.53500
O280        O  0.30374638  0.39063740  0.27616963    -0.98200
O281        O  0.39543629  0.32853177  0.27901253    -0.55400
O282        O  0.34735085  0.35656070  0.21849545    -0.74800
C283        C  0.35452210  0.34514188  0.18706109     0.97600
O284        O  0.29296355  0.25321114  0.12940785    -0.63600
O285        O  0.34705545  0.15835431  0.28037228    -0.58400
O286        O  0.32599446  0.21629825  0.17011195    -0.95100
O287        O  0.35535940  0.19216698  0.21875838    -0.93500
O288        O  0.24217490  0.14425476  0.25062136    -0.93900
O289        O  0.20909848  0.17511903  0.19617427    -0.92600
C290        C  0.34781022  0.19249707  0.18532738     1.16400
H291        H  0.27105346  0.19024530  0.31093093     0.32400
H292        H  0.20914382  0.25928320  0.19593167     0.43200
H293        H  0.36742128  0.27733474  0.22689027     0.36700
H294        H  0.25843158  0.34024058  0.31124348     0.33200
H295        H  0.14426037  0.18702586  0.24236652     0.25000
H296        H  0.17883765  0.38366453  0.24934239     0.30900
H297        H  0.32675375  0.40514531  0.26913076     0.36900
H298        H  0.21791001  0.13090522  0.25622051     0.31300
H299        H  0.37233018  0.15728601  0.29302128     0.30200
H300        H  0.41659087  0.21431712  0.26367133     0.31900
H301        H  0.40633774  0.32317004  0.25520809     0.30800
H302        H  0.22334534  0.18853737  0.17749061     0.34800
H303        H  0.26549451  0.24776766  0.12330379     0.27600
H304        H  0.24057481  0.27812047  0.40568974     0.31800
H305        H  0.36238878  0.37602717  0.32117975     0.34700
H306        H  0.32761778  0.15006031  0.29800720     0.27300
H307        H  0.29944145  0.27539390  0.11588929     0.40100
H308        H  0.13421147  0.29712847  0.26784200     0.30200
H309        H  0.14316716  0.22732845  0.25501886     0.37800
H310        H  0.40140482  0.30680208  0.29336274     0.29700
H311        H  0.21967394  0.38909557  0.26736387     0.29700
H312        H  0.27353167  0.30536079  0.39405535     0.30000
C313        C  0.44776396  0.44179375  0.89257366     0.79200
N314        N  0.40995909  0.44970718  0.89963890    -0.79100
C315        C  0.39130057  0.43383983  0.92734374     0.81600
N316        N  0.41054525  0.40962341  0.94775490    -0.79100
C317        C  0.44840326  0.40167906  0.94100695     0.81700
N318        N  0.46712266  0.41764060  0.91329239    -0.80800
C319        C  0.42868475  0.37000976  0.62081350     0.79200
N320        N  0.39841813  0.35295292  0.63689543    -0.79100
C321        C  0.38095136  0.36734711  0.66573333     0.81600
N322        N  0.39386179  0.39933039  0.67878387    -0.79100
C323        C  0.42357224  0.41746056  0.66301204     0.81700
N324        N  0.44179846  0.40235388  0.63415302    -0.80800
Zr325      Zr  0.02251100  0.19555516  0.49707394     2.17500
O326        O  0.50551487  0.13208149  0.50584912    -0.52400
O327        O  0.06381827  0.17431674  0.94756259    -0.75600
O328        O  0.46450515  0.17828845  0.96297957    -0.82400
O329        O  0.09149983  0.19348906  0.57755701    -0.82900
O330        O  0.45987985  0.22516599  0.92548877    -0.79700
O331        O  0.05750314  0.15713889  0.53952573    -0.91400
O332        O  0.10369552  0.22133075  0.93387511    -0.77300
O333        O  0.02636921  0.24170148  0.95286334    -0.86800
O334        O  0.08062174  0.22926718  0.50841863    -0.86500
O335        O  0.46459441  0.23226189  0.50650226    -0.73300
O336        O  0.01544548  0.22078319  0.55606830    -0.85400
Zr337      Zr  0.02160075  0.33877142  0.52987588     2.26400
Zr338      Zr  0.46963422  0.27823532  0.96201913     2.06300
Zr339      Zr  0.07322636  0.25512308  0.56645573     2.10000
Zr340      Zr  0.08390312  0.27539834  0.96469017     1.78800
O341        O  0.06859474  0.23936335  0.62917364    -0.94200
O342        O  0.07873807  0.28976832  0.90164194    -0.42000
O343        O  0.07861448  0.30163922  0.52247733    -0.78600
O344        O  0.02778231  0.31318164  0.97090737    -0.97300
O345        O  0.46296006  0.30535975  0.51951106    -0.90600
O346        O  0.01753619  0.29319118  0.57483964    -0.93500
C347        C  0.09192305  0.18866918  0.92982055     1.00300
C348        C  0.08144407  0.16252992  0.56534799     1.13200
C349        C  0.44712140  0.19534164  0.93787078     1.04000
O350        O  0.45840873  0.29333475  0.89990464    -0.95600
O351        O  0.45422563  0.33997963  0.94837519    -0.91400
O352        O  0.48973431  0.37666978  0.98491837    -0.84500
C353        C  0.46567627  0.37102926  0.95924155     1.10600
O354        O  0.42396560  0.20614387  0.58311976    -0.97600
Zr355      Zr  0.45995931  0.25963071  0.56377651     1.88900
O356        O  0.47935221  0.36239056  0.57723833    -0.74300
O357        O  0.39927015  0.27272928  0.96890828    -0.53500
O358        O  0.39051696  0.26355879  0.55060806    -0.98200
O359        O  0.46595008  0.24655682  0.62705135    -0.55400
O360        O  0.43934846  0.31557887  0.59123520    -0.74800
C361        C  0.45049620  0.34860211  0.59424288     0.97600
O362        O  0.03684467  0.40331216  0.02820479    -0.63600
O363        O  0.14427495  0.25749992  0.56720322    -0.58400
O364        O  0.08527161  0.35145926  0.55765612    -0.95100
O365        O  0.09092203  0.30829413  0.59937995    -0.93500
O366        O  0.15311423  0.27114909  0.97843795    -0.93900
O367        O  0.12016190  0.32940731  0.94770987    -0.92600
C368        C  0.10292687  0.33697052  0.58427339     1.16400
H369        H  0.10334958  0.21380886  0.50724008     0.32400
H370        H  0.03027113  0.33172703  0.95302418     0.43200
H371        H  0.01739672  0.30358410  0.59843908     0.36700
H372        H  0.44046275  0.21907477  0.50415204     0.33200
H373        H  0.10427165  0.28284695  0.89137406     0.25000
H374        H  0.39060655  0.29706965  0.97676765     0.30900
H375        H  0.37838134  0.27284366  0.57272754     0.36900
H376        H  0.16563924  0.26409764  0.95572589     0.31300
H377        H  0.15171824  0.24869009  0.59108855     0.30200
H378        H  0.09551561  0.24167469  0.63840208     0.31900
H379        H  0.47622970  0.26900686  0.63805894     0.30800
H380        H  0.10829315  0.34922965  0.96183933     0.34800
H381        H  0.04304468  0.41022398  0.05302572     0.27600
H382        H  0.50467283  0.12123730  0.48174729     0.31800
H383        H  0.40509095  0.21471768  0.60122087     0.34700
H384        H  0.15277934  0.23803455  0.55076982     0.27300
H385        H  0.06194190  0.40501916  0.01530424     0.40100
H386        H  0.48473051  0.29814739  0.89021363     0.30200
H387        H  0.06026342  0.27164556  0.89192472     0.37800
H388        H  0.48766925  0.22897952  0.62865838     0.29700
H389        H  0.38923089  0.27039806  0.94432770     0.29700
H390        H  0.47810786  0.13220524  0.51411709     0.30000
C391        C  0.35084866  0.19557646  0.89412627     0.79200
N392        N  0.38929785  0.20165500  0.90034409    -0.79100
C393        C  0.40821233  0.18348459  0.92652329     0.81600
N394        N  0.38851224  0.15872933  0.94610959    -0.79100
C395        C  0.35001178  0.15272217  0.94025186     0.81700
N396        N  0.33118030  0.17104040  0.91412438    -0.80800
Zr397      Zr  0.27238213  0.08874536  0.52541662     2.17500
O398        O  0.25532810  0.15223320  0.01673200    -0.52400
O399        O  0.31362069  0.10996979  0.57498181    -0.75600
O400        O  0.21432483  0.10599859  0.55934103    -0.82400
O401        O  0.34160702  0.09086985  0.94522693    -0.84100
O402        O  0.20987281  0.05914097  0.59686197    -0.79700
O403        O  0.30734919  0.12725297  0.98302078    -0.91400
O404        O  0.35360753  0.06301938  0.58860494    -0.77300
O405        O  0.27619996  0.04258976  0.56964133    -0.86800
O406        O  0.33054929  0.05509686  0.51420833    -0.86500
O407        O  0.21454367  0.05191702  0.51594009    -0.73300
O408        O  0.26551343  0.06351601  0.96641670    -0.85400
Zr409      Zr  0.27161950  0.44543198  0.49261771     2.26400
Zr410      Zr  0.21953980  0.00596532  0.56043479     2.06300
Zr411      Zr  0.32331457  0.02919056  0.95618162     2.10000
Zr412      Zr  0.33377509  0.00893195  0.55789183     1.78800
O413        O  0.31825887  0.04477729  0.89346072    -0.94200
O414        O  0.32861012  0.99477746  0.62098751    -0.42000
O415        O  0.32859208  0.48262093  0.50013798    -0.78600
O416        O  0.27772716  0.47104620  0.55158051    -0.97300
O417        O  0.21298462  0.47886002  0.50292058    -0.90600
O418        O  0.26770552  0.49103509  0.94768359    -0.93500
C419        C  0.34177560  0.09565195  0.59268807     1.00300
C420        C  0.33144241  0.12184613  0.95731954     1.13200
C421        C  0.19703250  0.08893631  0.58448109     1.04000
O422        O  0.20783909  0.49104951  0.62253293    -0.95600
O423        O  0.20441276  0.44422454  0.57433171    -0.91400
O424        O  0.23936329  0.40752266  0.53735590    -0.84500
C425        C  0.21557692  0.41316971  0.56324338     1.10600
O426        O  0.17402233  0.07812405  0.93964360    -0.97600
Zr427      Zr  0.21011826  0.02459223  0.95864501     1.88900
O428        O  0.22949011  0.42185586  0.94512845    -0.74300
O429        O  0.14919000  0.01127283  0.55324782    -0.53500
O430        O  0.14058129  0.02074613  0.97133981    -0.98200
O431        O  0.21662788  0.03787741  0.89545483    -0.55400
O432        O  0.18945439  0.46866362  0.93120210    -0.74800
C433        C  0.20059731  0.43564404  0.92817391     0.97600
O434        O  0.28693165  0.38090781  0.49453250    -0.63600
O435        O  0.39437386  0.02711452  0.95501897    -0.58400
O436        O  0.33531505  0.43272996  0.96487902    -0.95100
O437        O  0.34115465  0.47604931  0.92331260    -0.93500
O438        O  0.40287715  0.01317463  0.54368994    -0.93900
O439        O  0.37018080  0.45519484  0.57538714    -0.92600
C440        C  0.35306689  0.44730890  0.93835885     1.16400
H441        H  0.35325723  0.07058095  0.51542447     0.32400
H442        H  0.28022313  0.45246963  0.56943224     0.43200
H443        H  0.26763353  0.48063620  0.92408680     0.36700
H444        H  0.19037617  0.06505231  0.51824787     0.33200
H445        H  0.35435006  0.00119839  0.63114147     0.25000
H446        H  0.14065065  0.48692892  0.54528140     0.30900
H447        H  0.12857672  0.01171849  0.94905876     0.36900
H448        H  0.41569633  0.01928941  0.56652408     0.31300
H449        H  0.40164268  0.03680124  0.93141955     0.30200
H450        H  0.34522072  0.04300469  0.88422339     0.31900
H451        H  0.22748998  0.01563811  0.88450670     0.30800
H452        H  0.36101353  0.43593584  0.55900622     0.34800
H453        H  0.29272983  0.37383716  0.46967360     0.27600
H454        H  0.25431749  0.16302610  0.04085098     0.31800
H455        H  0.15565093  0.06974325  0.92103173     0.34700
H456        H  0.40288982  0.04602034  0.97206668     0.27300
H457        H  0.31223499  0.37928981  0.50710576     0.40100
H458        H  0.23410414  0.98647659  0.63246369     0.30200
H459        H  0.31061680  0.01328465  0.63075734     0.37800
H460        H  0.23799787  0.05584552  0.89409610     0.29700
H461        H  0.13901187  0.01350448  0.57778905     0.29700
H462        H  0.22797793  0.15211033  0.00830469     0.30000
C463        C  0.10088166  0.08867584  0.62837563     0.79200
N464        N  0.13930830  0.08257538  0.62209020    -0.79100
C465        C  0.15817833  0.10078399  0.59591445     0.81600
N466        N  0.13847923  0.12560777  0.57642120    -0.79100
C467        C  0.10000931  0.13164098  0.58236117     0.81700
N468        N  0.08120399  0.11327671  0.60846739    -0.80800
C469        C  0.17871697  0.41424405  0.90165366     0.79200
N470        N  0.14846303  0.43132857  0.88558431    -0.79100
C471        C  0.13096043  0.41694645  0.85676156     0.81600
N472        N  0.14381098  0.38493364  0.84372304    -0.79100
C473        C  0.17348683  0.36676184  0.85951218     0.81700
N474        N  0.19175593  0.38186886  0.88834402    -0.80800
Zr475      Zr  0.00465812  0.02036357  0.69108834     2.17500
O476        O  0.01596789  0.50527072  0.62866953    -0.52400
O477        O  0.45325841  0.06321029  0.67368284    -0.75600
O478        O  0.46438736  0.46995165  0.66858209    -0.82400
O479        O  0.10023952  0.07374150  0.68857015    -0.84100
O480        O  0.43499393  0.44601096  0.71731536    -0.79700
O481        O  0.04869854  0.05640049  0.65439622    -0.91400
O482        O  0.44235860  0.10159335  0.72000007    -0.77300
O483        O  0.45634918  0.02486663  0.73653787    -0.86800
O484        O  0.02098054  0.07231912  0.72594209    -0.86500
O485        O  0.01213167  0.46569657  0.72545072    -0.73300
O486        O  0.06928542  0.00982233  0.71437531    -0.85400
Zr487      Zr  0.04252614  0.01296931  0.83062836     2.26400
Zr488      Zr  0.46368210  0.47095105  0.77103287     2.06300
Zr489      Zr  0.08445701  0.06155441  0.75002906     2.10000
Zr490      Zr  0.47336271  0.07632758  0.77169249     1.78800
O491        O  0.15403528  0.04889031  0.74701427    -0.94200
O492        O  0.40435387  0.07314816  0.78636043    -0.42000
O493        O  0.03659417  0.06658646  0.79556175    -0.78600
O494        O  0.47775928  0.02287267  0.80748457    -0.97300
O495        O  0.02683561  0.46084563  0.79591053    -0.90600
O496        O  0.09153220  0.00850523  0.78556068    -0.93500
C497        C  0.43703270  0.09122527  0.68788463     1.00300
C498        C  0.08203319  0.07161652  0.65891748     1.13200
C499        C  0.44148500  0.44710216  0.68370736     1.04000
O500        O  0.39413692  0.48129959  0.77912173    -0.95600
O501        O  0.44938613  0.45402730  0.83165877    -0.91400
O502        O  0.49804580  0.47636832  0.86659884    -0.84500
C503        C  0.46652773  0.45823377  0.86166113     1.10600
O504        O  0.09581812  0.42866809  0.69502809    -0.97600
Zr505      Zr  0.07485849  0.45672173  0.75064819     1.88900
O506        O  0.09225373  0.46936942  0.84837232    -0.74300
O507        O  0.45808202  0.40534363  0.77655035    -0.53500
O508        O  0.05345054  0.39380539  0.74670822    -0.98200
O509        O  0.14547784  0.45583671  0.74340540    -0.55400
O510        O  0.09742315  0.42780103  0.80399348    -0.74800
C511        C  0.10457342  0.43919419  0.83543495     0.97600
O512        O  0.54282949  0.03106344  0.89312524    -0.63600
O513        O  0.09642897  0.12612968  0.74268082    -0.58400
O514        O  0.07602060  0.06808346  0.85231326    -0.95100
O515        O  0.10553977  0.09211905  0.80369562    -0.93500
O516        O  0.49199286  0.14003031  0.77160658    -0.93900
O517        O  0.45933392  0.10885049  0.82668587    -0.92600
C518        C  0.09791859  0.09183919  0.83711517     1.16400
H519        H  0.02088722  0.09404186  0.71162280     0.32400
H520        H  0.45914635  0.02495532  0.82663861     0.43200
H521        H  0.11745034  0.00707277  0.79559962     0.36700
H522        H  0.00850629  0.44410068  0.71130462     0.33200
H523        H  0.39391115  0.09705525  0.77935653     0.25000
H524        H  0.42994008  0.40019171  0.77359748     0.30900
H525        H  0.07641055  0.37921821  0.75371204     0.36900
H526        H  0.46746528  0.15338545  0.76706415     0.31300
H527        H  0.12170201  0.12741383  0.73005963     0.30200
H528        H  0.16658437  0.07072408  0.75724968     0.31900
H529        H  0.15641627  0.46100855  0.76723805     0.30800
H530        H  0.47418860  0.09566126  0.84513510     0.34800
H531        H  0.51528418  0.03603550  0.89932258     0.27600
H532        H  0.99023565  0.50663978  0.61681095     0.31800
H533        H  0.11262394  0.40798948  0.70180664     0.34700
H534        H  0.07695696  0.13441989  0.72507698     0.27300
H535        H  0.54978686  0.00897247  0.90659103     0.40100
H536        H  0.38414221  0.48703580  0.75509886     0.30200
H537        H  0.39317516  0.05614987  0.76869031     0.37800
H538        H  0.15145250  0.47766683  0.72920649     0.29700
H539        H  0.47045636  0.39529368  0.75487400     0.29700
H540        H  0.02319556  0.47928174  0.62816268     0.30000
C541        C  0.36205745  0.11594733  0.62117904     0.79200
N542        N  0.39233622  0.09877515  0.63743352    -0.79100
C543        C  0.40887992  0.11260341  0.66707699     0.81600
N544        N  0.39486205  0.14395970  0.68070774    -0.79100
C545        C  0.36504056  0.16204416  0.66497094     0.81700
N546        N  0.34796859  0.14768521  0.63518705    -0.80800
C547        C  0.11220733  0.16836724  0.90133012     0.79200
N548        N  0.09810098  0.13664379  0.88728803    -0.79100
C549        C  0.11517255  0.12228677  0.85749950     0.81600
N550        N  0.14502621  0.14036070  0.84180212    -0.79100
C551        C  0.15905090  0.17170427  0.85546875     0.81700
N552        N  0.14250195  0.18552897  0.88510482    -0.80800
C553        C  0.19768056  0.34248562  0.62998492     0.79200
N554        N  0.21702835  0.36660760  0.60922525    -0.79100
C555        C  0.19829840  0.38253316  0.58149933     0.81600
N556        N  0.16042314  0.37460874  0.57480351    -0.79100
C557        C  0.14117900  0.35042994  0.59526444     0.81700
N558        N  0.15985931  0.33458090  0.62296799    -0.80800
Zr559      Zr  0.25469876  0.26395678  0.83143536     2.17500
O560        O  0.26625865  0.27937982  0.89373190    -0.52400
O561        O  0.20325459  0.22120801  0.84885787    -0.75600
O562        O  0.21424765  0.31423101  0.85397047    -0.82400
O563        O  0.35032015  0.21088330  0.83401046    -0.84100
O564        O  0.18498339  0.33825928  0.80522064    -0.79700
O565        O  0.29845854  0.22757909  0.86807881    -0.91400
O566        O  0.19264503  0.18265474  0.80262609    -0.77300
O567        O  0.20639997  0.25939216  0.78601711    -0.86800
O568        O  0.27111765  0.21197698  0.79662159    -0.86500
O569        O  0.26209077  0.31865764  0.79708326    -0.73300
O570        O  0.31928685  0.27451700  0.80808913    -0.85400
Zr571      Zr  0.29250246  0.27134540  0.69189479     2.26400
Zr572      Zr  0.21363513  0.31329886  0.75151584     2.06300
Zr573      Zr  0.33455753  0.22279926  0.77247911     2.10000
Zr574      Zr  0.22349666  0.20794694  0.75089559     1.78800
O575        O  0.40413212  0.23557741  0.77509629    -0.94200
O576        O  0.15445089  0.21134495  0.73651321    -0.42000
O577        O  0.28668004  0.21769866  0.72695016    -0.78600
O578        O  0.22777673  0.26138718  0.71506886    -0.97300
O579        O  0.27677446  0.32347483  0.72661894    -0.90600
O580        O  0.34151903  0.27586974  0.73695638    -0.93500
C581        C  0.18718582  0.19310004  0.83469237     1.00300
C582        C  0.33195279  0.21265657  0.86360345     1.13200
C583        C  0.19139099  0.33711168  0.83883313     1.04000
O584        O  0.14422802  0.30203088  0.74364656    -0.95600
O585        O  0.19955615  0.33054969  0.69094350    -0.91400
O586        O  0.24780760  0.30766099  0.65587544    -0.84500
C587        C  0.21648459  0.32606360  0.66088189     1.10600
O588        O  0.34604777  0.35496346  0.82775750    -0.97600
Zr589      Zr  0.32481858  0.32763760  0.77187285     1.88900
O590        O  0.34218885  0.31496987  0.67412954    -0.74300
O591        O  0.20698214  0.37882523  0.74593749    -0.53500
O592        O  0.30374568  0.39063741  0.77616981    -0.98200
O593        O  0.39543619  0.32853209  0.77901238    -0.55400
O594        O  0.34735038  0.35656091  0.71849525    -0.74800
C595        C  0.35452199  0.34514186  0.68706104     0.97600
O596        O  0.29296308  0.25321088  0.62940785    -0.63600
O597        O  0.34705664  0.15835465  0.78037226    -0.58400
O598        O  0.32599434  0.21629825  0.67011167    -0.95100
O599        O  0.35535895  0.19216683  0.71875819    -0.93500
O600        O  0.24217571  0.14425499  0.75062154    -0.93900
O601        O  0.20909868  0.17511879  0.69617440    -0.92600
C602        C  0.34780991  0.19249696  0.68532716     1.16400
H603        H  0.27105375  0.19024535  0.81093083     0.32400
H604        H  0.20914377  0.25928321  0.69593181     0.43200
H605        H  0.36742150  0.27733503  0.72688996     0.36700
H606        H  0.25843158  0.34024051  0.81124336     0.33200
H607        H  0.14426050  0.18702557  0.74236632     0.25000
H608        H  0.17883665  0.38366403  0.74934317     0.30900
H609        H  0.32675280  0.40514553  0.76913067     0.36900
H610        H  0.21791099  0.13090530  0.75622097     0.31300
H611        H  0.37233133  0.15728652  0.79302123     0.30200
H612        H  0.41659121  0.21431688  0.76367255     0.31900
H613        H  0.40633760  0.32317045  0.75520794     0.30800
H614        H  0.22334496  0.18853743  0.67749060     0.34800
H615        H  0.26549397  0.24776787  0.62330381     0.27600
H616        H  0.24057529  0.27812030  0.90568978     0.31800
H617        H  0.36238918  0.37602749  0.82117925     0.34700
H618        H  0.32761893  0.15006040  0.79800714     0.27300
H619        H  0.29944141  0.27539352  0.61588920     0.40100
H620        H  0.13421188  0.29712742  0.76784238     0.30200
H621        H  0.14316709  0.22732803  0.75501894     0.37800
H622        H  0.40140474  0.30680232  0.79336254     0.29700
H623        H  0.21967313  0.38909541  0.76736425     0.29700
H624        H  0.27353189  0.30536089  0.89405530     0.30000
C625        C  0.44776393  0.94179357  0.39257351     0.79200
N626        N  0.40995905  0.94970704  0.39963872    -0.79100
C627        C  0.39130047  0.93383971  0.42734353     0.81600
N628        N  0.41054510  0.90962325  0.44775468    -0.79100
C629        C  0.44840310  0.90167887  0.44100679     0.81700
N630        N  0.46712257  0.91764040  0.41329227    -0.80800
C631        C  0.42868491  0.87000970  0.12081361     0.79200
N632        N  0.39841837  0.85295285  0.13689562    -0.79100
C633        C  0.38095150  0.86734715  0.16573342     0.81600
N634        N  0.39386190  0.89933050  0.17878386    -0.79100
C635        C  0.42357230  0.91746069  0.16301194     0.81700
N636        N  0.44179850  0.90235395  0.13415294    -0.80800
Zr637      Zr  0.02251090  0.69555518  0.99707392     2.17500
O638        O  0.50551487  0.63208157  0.00584910    -0.52400
O639        O  0.06381823  0.67431657  0.44756268    -0.75600
O640        O  0.46450527  0.67828842  0.46297951    -0.82400
O641        O  0.09149982  0.69348905  0.07755682    -0.82900
O642        O  0.45987982  0.72516600  0.42548873    -0.79700
O643        O  0.05750285  0.65713881  0.03952581    -0.91400
O644        O  0.10369528  0.72133071  0.43387518    -0.77300
O645        O  0.02636921  0.74170151  0.45286341    -0.86800
O646        O  0.08062166  0.72926715  0.00841857    -0.86500
O647        O  0.46459441  0.73226203  0.00650211    -0.73300
O648        O  0.01544542  0.72078314  0.05606832    -0.85400
Zr649      Zr  0.02160080  0.83877144  0.02987591     2.26400
Zr650      Zr  0.46963422  0.77823522  0.46201926     2.06300
Zr651      Zr  0.07322630  0.75512307  0.06645566     2.10000
Zr652      Zr  0.08390310  0.77539841  0.46469023     1.78800
O653        O  0.06859512  0.73936322  0.12917360    -0.94200
O654        O  0.07873785  0.78976860  0.40164202    -0.42000
O655        O  0.07861444  0.80163920  0.02247727    -0.78600
O656        O  0.02778218  0.81318162  0.47090738    -0.97300
O657        O  0.46296016  0.80535976  0.01951097    -0.90600
O658        O  0.01753617  0.79319115  0.07483964    -0.93500
C659        C  0.09192295  0.68866909  0.42982063     1.00300
C660        C  0.08144395  0.66252990  0.06534794     1.13200
C661        C  0.44712149  0.69534158  0.43787070     1.04000
O662        O  0.45840810  0.79333483  0.39990493    -0.95600
O663        O  0.45422539  0.83997943  0.44837514    -0.91400
O664        O  0.48973418  0.87666963  0.48491818    -0.84500
C665        C  0.46567607  0.87102907  0.45924142     1.10600
O666        O  0.42396586  0.70614350  0.08311929    -0.97600
Zr667      Zr  0.45995928  0.75963069  0.06377643     1.88900
O668        O  0.47935230  0.86239046  0.07723838    -0.74300
O669        O  0.39927027  0.77272906  0.46890892    -0.53500
O670        O  0.39051690  0.76355914  0.05060837    -0.98200
O671        O  0.46595006  0.74655671  0.12705128    -0.55400
O672        O  0.43934851  0.81557880  0.09123528    -0.74800
C673        C  0.45049630  0.84860201  0.09424296     0.97600
O674        O  0.03684474  0.90331206  0.52820474    -0.63600
O675        O  0.14427482  0.75750005  0.06720265    -0.58400
O676        O  0.08527164  0.85145924  0.05765612    -0.95100
O677        O  0.09092197  0.80829413  0.09937998    -0.93500
O678        O  0.15311420  0.77114920  0.47843783    -0.93900
O679        O  0.12016209  0.82940734  0.44770999    -0.92600
C680        C  0.10292691  0.83697048  0.08427338     1.16400
H681        H  0.10334951  0.71380868  0.00724008     0.32400
H682        H  0.03027088  0.83172704  0.45302422     0.43200
H683        H  0.01739671  0.80358396  0.09843913     0.36700
H684        H  0.44046266  0.71907490  0.00415183     0.33200
H685        H  0.10427146  0.78284748  0.39137410     0.25000
H686        H  0.39060669  0.79706955  0.47676794     0.30900
H687        H  0.37838145  0.77284348  0.07272814     0.36900
H688        H  0.16563904  0.76409716  0.45572585     0.31300
H689        H  0.15171826  0.74869014  0.09108783     0.30200
H690        H  0.09551593  0.74167496  0.13840205     0.31900
H691        H  0.47623059  0.76900638  0.13805883     0.30800
H692        H  0.10829436  0.84922951  0.46184039     0.34800
H693        H  0.04304486  0.91022388  0.55302565     0.27600
H694        H  0.50467296  0.62123733  0.98174733     0.31800
H695        H  0.40509129  0.71471703  0.10122059     0.34700
H696        H  0.15277904  0.73803466  0.05076910     0.27300
H697        H  0.06194190  0.90501905  0.51530406     0.40100
H698        H  0.48472994  0.79814616  0.39021341     0.30200
H699        H  0.06026329  0.77164573  0.39192476     0.37800
H700        H  0.48766856  0.72897866  0.12865821     0.29700
H701        H  0.38923085  0.77039740  0.44432844     0.29700
H702        H  0.47810777  0.63220535  0.01411698     0.30000
C703        C  0.35084883  0.69557634  0.39412613     0.79200
N704        N  0.38929803  0.70165482  0.40034392    -0.79100
C705        C  0.40821248  0.68348445  0.42652317     0.81600
N706        N  0.38851235  0.65872923  0.44610948    -0.79100
C707        C  0.35001189  0.65272209  0.44025174     0.81700
N708        N  0.33118043  0.67104034  0.41412427    -0.80800
Zr709      Zr  0.27238209  0.58874541  0.02541672     2.17500
O710        O  0.25532829  0.65223316  0.51673201    -0.52400
O711        O  0.31362070  0.60996989  0.07498191    -0.75600
O712        O  0.21432483  0.60599868  0.05934110    -0.82400
O713        O  0.34160726  0.59086976  0.44522677    -0.84100
O714        O  0.20987277  0.55914103  0.09686201    -0.79700
O715        O  0.30734922  0.62725279  0.48302053    -0.91400
O716        O  0.35360768  0.56301955  0.08860492    -0.77300
O717        O  0.27619991  0.54258981  0.06964140    -0.86800
O718        O  0.33054929  0.55509694  0.01420850    -0.86500
O719        O  0.21454364  0.55191701  0.01594025    -0.73300
O720        O  0.26551344  0.56351603  0.46641649    -0.85400
Zr721      Zr  0.27161962  0.94543210  0.99261787     2.26400
Zr722      Zr  0.21953981  0.50596528  0.06043492     2.06300
Zr723      Zr  0.32331455  0.52919052  0.45618141     2.10000
Zr724      Zr  0.33377510  0.50893206  0.05789203     1.78800
O725        O  0.31825864  0.54477737  0.39346053    -0.94200
O726        O  0.32861002  0.49477782  0.12098777    -0.42000
O727        O  0.32859215  0.98262104  0.00013825    -0.78600
O728        O  0.27772731  0.97104632  0.05158066    -0.97300
O729        O  0.21298466  0.97886011  0.00292075    -0.90600
O730        O  0.26770544  0.99103499  0.44768340    -0.93500
C731        C  0.34177569  0.59565209  0.09268811     1.00300
C732        C  0.33144253  0.62184601  0.45731935     1.13200
C733        C  0.19703249  0.58893639  0.08448114     1.04000
O734        O  0.20783932  0.99104983  0.12253313    -0.95600
O735        O  0.20441295  0.94422446  0.07433168    -0.91400
O736        O  0.23936360  0.90752260  0.03735596    -0.84500
C737        C  0.21557720  0.91316962  0.06324341     1.10600
O738        O  0.17402227  0.57812364  0.43964313    -0.97600
Zr739      Zr  0.21011838  0.52459212  0.45864483     1.88900
O740        O  0.22948998  0.92185594  0.44512833    -0.74300
O741        O  0.14919002  0.51127269  0.05324766    -0.53500
O742        O  0.14058153  0.52074594  0.47134009    -0.98200
O743        O  0.21662803  0.53787772  0.39545471    -0.55400
O744        O  0.18945428  0.96866369  0.43120197    -0.74800
C745        C  0.20059714  0.93564410  0.42817384     0.97600
O746        O  0.28693192  0.88090796  0.99453269    -0.63600
O747        O  0.39437382  0.52711435  0.45501855    -0.58400
O748        O  0.33531497  0.93272987  0.46487886    -0.95100
O749        O  0.34115444  0.97604917  0.42331239    -0.93500
O750        O  0.40287724  0.51317469  0.04369028    -0.93900
O751        O  0.37018056  0.95519486  0.07538750    -0.92600
C752        C  0.35306678  0.94730879  0.43835867     1.16400
H753        H  0.35325720  0.57058106  0.01542461     0.32400
H754        H  0.28022337  0.95246971  0.06943236     0.43200
H755        H  0.26763341  0.98063611  0.42408674     0.36700
H756        H  0.19037612  0.56505227  0.01824807     0.33200
H757        H  0.35435017  0.50119822  0.13114164     0.25000
H758        H  0.14065085  0.98692888  0.04528082     0.30900
H759        H  0.12857685  0.51171756  0.44905939     0.36900
H760        H  0.41569645  0.51928951  0.06652441     0.31300
H761        H  0.40164254  0.53680031  0.43141878     0.30200
H762        H  0.34522026  0.54300376  0.38422287     0.31900
H763        H  0.22748926  0.51563822  0.38450629     0.30800
H764        H  0.36101320  0.93593594  0.05900654     0.34800
H765        H  0.29272995  0.87383725  0.96967380     0.27600
H766        H  0.25431766  0.66302594  0.54085104     0.31800
H767        H  0.15565016  0.56974244  0.42103201     0.34700
H768        H  0.40288993  0.54602066  0.47206564     0.27300
H769        H  0.31223537  0.87929000  0.00710581     0.40100
H770        H  0.23410436  0.48647693  0.13246389     0.30200
H771        H  0.31061729  0.51328547  0.13075764     0.37800
H772        H  0.23799872  0.55584511  0.39409596     0.29700
H773        H  0.13901169  0.51350376  0.07778885     0.29700
H774        H  0.22797815  0.65211032  0.50830457     0.30000
C775        C  0.10088165  0.58867588  0.12837563     0.79200
N776        N  0.13930828  0.58257540  0.12209016    -0.79100
C777        C  0.15817830  0.60078408  0.09591447     0.81600
N778        N  0.13847920  0.62560786  0.07642123    -0.79100
C779        C  0.10000926  0.63164101  0.08236117     0.81700
N780        N  0.08120396  0.61327675  0.10846741    -0.80800
C781        C  0.17871668  0.91424403  0.40165372     0.79200
N782        N  0.14846267  0.93132851  0.38558442    -0.79100
C783        C  0.13096011  0.91694639  0.35676164     0.81600
N784        N  0.14381078  0.88493365  0.34372305    -0.79100
C785        C  0.17348669  0.86676190  0.35951215     0.81700
N786        N  0.19175573  0.88186891  0.38834402    -0.80800
Zr787      Zr  0.00465816  0.52036360  0.19108831     2.17500
O788        O  0.01596795  0.00527111  0.12866946    -0.52400
O789        O  0.45325863  0.56321044  0.17368288    -0.75600
O790        O  0.46438763  0.96995170  0.16858202    -0.82400
O791        O  0.10023962  0.57374133  0.18857014    -0.84100
O792        O  0.43499368  0.94601133  0.21731518    -0.79700
O793        O  0.04869853  0.55640057  0.15439623    -0.91400
O794        O  0.44235852  0.60159334  0.22000020    -0.77300
O795        O  0.45634936  0.52486669  0.23653790    -0.86800
O796        O  0.02098053  0.57231910  0.22594214    -0.86500
O797        O  0.01213172  0.96569665  0.22545066    -0.73300
O798        O  0.06928540  0.50982226  0.21437533    -0.85400
Zr799      Zr  0.04252608  0.51296935  0.33062840     2.26400
Zr800      Zr  0.46368215  0.97095101  0.27103271     2.06300
Zr801      Zr  0.08445700  0.56155430  0.25002908     2.10000
Zr802      Zr  0.47336276  0.57632764  0.27169253     1.78800
O803        O  0.15403527  0.54889016  0.24701435    -0.94200
O804        O  0.40435392  0.57314735  0.28636046    -0.42000
O805        O  0.03659418  0.56658649  0.29556178    -0.78600
O806        O  0.47775921  0.52287274  0.30748461    -0.97300
O807        O  0.02683556  0.96084573  0.29591056    -0.90600
O808        O  0.09153218  0.50850517  0.28556077    -0.93500
C809        C  0.43703283  0.59122537  0.18788470     1.00300
C810        C  0.08203322  0.57161651  0.15891748     1.13200
C811        C  0.44148504  0.94710236  0.18370722     1.04000
O812        O  0.39413704  0.98129992  0.27912178    -0.95600
O813        O  0.44938634  0.95402709  0.33165863    -0.91400
O814        O  0.49804572  0.97636833  0.36659890    -0.84500
C815        C  0.46652778  0.95823365  0.36166107     1.10600
O816        O  0.09581808  0.92866847  0.19502796    -0.97600
Zr817      Zr  0.07485850  0.95672184  0.25064823     1.88900
O818        O  0.09225347  0.96936941  0.34837241    -0.74300
O819        O  0.45808182  0.90534353  0.27654969    -0.53500
O820        O  0.05345061  0.89380544  0.24670832    -0.98200
O821        O  0.14547782  0.95583670  0.24340552    -0.55400
O822        O  0.09742312  0.92780114  0.30399346    -0.74800
C823        C  0.10457320  0.93919419  0.33543500     0.97600
O824        O  0.54282882  0.53106398  0.39312524    -0.63600
O825        O  0.09642902  0.62612955  0.24268080    -0.58400
O826        O  0.07602058  0.56808347  0.35231331    -0.95100
O827        O  0.10553979  0.59211894  0.30369564    -0.93500
O828        O  0.49199273  0.64003045  0.27160638    -0.93900
O829        O  0.45933414  0.60885092  0.32668570    -0.92600
C830        C  0.09791858  0.59183917  0.33711518     1.16400
H831        H  0.02088726  0.59404186  0.21162286     0.32400
H832        H  0.45914617  0.52495540  0.32663872     0.43200
H833        H  0.11745032  0.50707265  0.29559971     0.36700
H834        H  0.00850639  0.94410084  0.21130448     0.33200
H835        H  0.39391142  0.59705535  0.27935900     0.25000
H836        H  0.42993984  0.90019175  0.27359674     0.30900
H837        H  0.07641071  0.87921825  0.25371182     0.36900
H838        H  0.46746513  0.65338555  0.26706398     0.31300
H839        H  0.12170184  0.62741372  0.23005929     0.30200
H840        H  0.16658429  0.57072307  0.25725158     0.31900
H841        H  0.15641623  0.96100897  0.26723803     0.30800
H842        H  0.47418893  0.59566180  0.34513494     0.34800
H843        H  0.51528342  0.53603570  0.39932252     0.27600
H844        H  0.99023563  0.00664022  0.11681092     0.31800
H845        H  0.11262391  0.90798981  0.20180638     0.34700
H846        H  0.07695665  0.63441985  0.22507731     0.27300
H847        H  0.54978657  0.50897322  0.40659122     0.40100
H848        H  0.38414226  0.98703641  0.25509900     0.30200
H849        H  0.39317490  0.55615105  0.26868874     0.37800
H850        H  0.15145246  0.97766663  0.22920625     0.29700
H851        H  0.47045604  0.89529368  0.25487328     0.29700
H852        H  0.02319558  0.97928219  0.12816242     0.30000
C853        C  0.36205758  0.61594746  0.12117913     0.79200
N854        N  0.39233637  0.59877528  0.13743358    -0.79100
C855        C  0.40888014  0.61260356  0.16707701     0.81600
N856        N  0.39486235  0.64395989  0.18070776    -0.79100
C857        C  0.36504083  0.66204434  0.16497102     0.81700
N858        N  0.34796876  0.64768536  0.13518716    -0.80800
C859        C  0.11220727  0.66836722  0.40133017     0.79200
N860        N  0.09810096  0.63664377  0.38728804    -0.79100
C861        C  0.11517249  0.62228681  0.35749947     0.81600
N862        N  0.14502608  0.64036081  0.34180207    -0.79100
C863        C  0.15905076  0.67170436  0.35546877     0.81700
N864        N  0.14250184  0.68552901  0.38510488    -0.80800
C865        C  0.19768060  0.84248545  0.12998492     0.79200
N866        N  0.21702848  0.86660744  0.10922531    -0.79100
C867        C  0.19829864  0.88253300  0.08149931     0.81600
N868        N  0.16042340  0.87460854  0.07480337    -0.79100
C869        C  0.14117917  0.85042977  0.09526430     0.81700
N870        N  0.15985938  0.83458074  0.12296789    -0.80800
Zr871      Zr  0.25469873  0.76395668  0.33143546     2.17500
O872        O  0.26625835  0.77937978  0.39373207    -0.52400
O873        O  0.20325466  0.72120789  0.34885809    -0.75600
O874        O  0.21424750  0.81423100  0.35397034    -0.82400
O875        O  0.35032017  0.71088313  0.33401035    -0.84100
O876        O  0.18498346  0.83825952  0.30522052    -0.79700
O877        O  0.29845877  0.72757918  0.36807885    -0.91400
O878        O  0.19264479  0.68265493  0.30262610    -0.77300
O879        O  0.20639996  0.75939216  0.28601714    -0.86800
O880        O  0.27111759  0.71197685  0.29662165    -0.86500
O881        O  0.26209085  0.81865751  0.29708335    -0.73300
O882        O  0.31928682  0.77451684  0.30808919    -0.85400
Zr883      Zr  0.29250249  0.77134538  0.19189487     2.26400
Zr884      Zr  0.21363525  0.81329889  0.25151586     2.06300
Zr885      Zr  0.33455744  0.72279914  0.27247912     2.10000
Zr886      Zr  0.22349665  0.70794695  0.25089559     1.78800
O887        O  0.40413211  0.73557696  0.27509662    -0.94200
O888        O  0.15445105  0.71134506  0.23651276    -0.42000
O889        O  0.28668004  0.71769851  0.22695009    -0.78600
O890        O  0.22777681  0.76138721  0.21506888    -0.97300
O891        O  0.27677461  0.82347483  0.22661900    -0.90600
O892        O  0.34151902  0.77586961  0.23695645    -0.93500
C893        C  0.18718571  0.69310009  0.33469246     1.00300
C894        C  0.33195293  0.71265653  0.36360338     1.13200
C895        C  0.19139095  0.83711180  0.33883301     1.04000
O896        O  0.14422805  0.80203123  0.24364632    -0.95600
O897        O  0.19955617  0.83054978  0.19094357    -0.91400
O898        O  0.24780733  0.80766058  0.15587550    -0.84500
C899        C  0.21648450  0.82606342  0.16088194     1.10600
O900        O  0.34604797  0.85496297  0.32775777    -0.97600
Zr901      Zr  0.32481870  0.82763748  0.27187296     1.88900
O902        O  0.34218866  0.81497007  0.17412948    -0.74300
O903        O  0.20698305  0.87882526  0.24593723    -0.53500
O904        O  0.30374593  0.89063736  0.27616965    -0.98200
O905        O  0.39543628  0.82853188  0.27901252    -0.55400
O906        O  0.34735072  0.85656079  0.21849543    -0.74800
C907        C  0.35452206  0.84514192  0.18706111     0.97600
O908        O  0.29296342  0.75321101  0.12940790    -0.63600
O909        O  0.34705570  0.65835440  0.28037224    -0.58400
O910        O  0.32599435  0.71629825  0.17011188    -0.95100
O911        O  0.35535953  0.69216712  0.21875826    -0.93500
O912        O  0.24217507  0.64425483  0.25062162    -0.93900
O913        O  0.20909864  0.67511887  0.19617434    -0.92600
C914        C  0.34781022  0.69249713  0.18532728     1.16400
H915        H  0.27105364  0.69024520  0.31093086     0.32400
H916        H  0.20914393  0.75928327  0.19593173     0.43200
H917        H  0.36742149  0.77733484  0.22688999     0.36700
H918        H  0.25843168  0.84024034  0.31124345     0.33200
H919        H  0.14426053  0.68702580  0.24236623     0.25000
H920        H  0.17883758  0.88366431  0.24934265     0.30900
H921        H  0.32675309  0.90514546  0.26913050     0.36900
H922        H  0.21791011  0.63090530  0.25622052     0.31300
H923        H  0.37233017  0.65728603  0.29302159     0.30200
H924        H  0.41659111  0.71431696  0.26367186     0.31900
H925        H  0.40633768  0.82317002  0.25520810     0.30800
H926        H  0.22334558  0.68853708  0.17749064     0.34800
H927        H  0.26549436  0.74776752  0.12330391     0.27600
H928        H  0.24057497  0.77812040  0.40568988     0.31800
H929        H  0.36238893  0.87602736  0.32117964     0.34700
H930        H  0.32761770  0.65006029  0.29800686     0.27300
H931        H  0.29944126  0.77539376  0.11588931     0.40100
H932        H  0.13421158  0.79712833  0.26784210     0.30200
H933        H  0.14316724  0.72732854  0.25501814     0.37800
H934        H  0.40140473  0.80680223  0.29336284     0.29700
H935        H  0.21967384  0.88909539  0.26736410     0.29700
H936        H  0.27353163  0.80536086  0.39405548     0.30000
C937        C  0.44776394  0.94179366  0.89257360     0.79200
N938        N  0.40995907  0.94970713  0.89963881    -0.79100
C939        C  0.39130054  0.93383988  0.92734371     0.81600
N940        N  0.41054520  0.90962351  0.94775494    -0.79100
C941        C  0.44840319  0.90167910  0.94100701     0.81700
N942        N  0.46712261  0.91764055  0.91329241    -0.80800
C943        C  0.42868478  0.87000971  0.62081348     0.79200
N944        N  0.39841812  0.85295292  0.63689536    -0.79100
C945        C  0.38095134  0.86734713  0.66573325     0.81600
N946        N  0.39386183  0.89933039  0.67878380    -0.79100
C947        C  0.42357229  0.91746055  0.66301196     0.81700
N948        N  0.44179851  0.90235384  0.63415297    -0.80800
Zr949      Zr  0.02251095  0.69555522  0.49707395     2.17500
O950        O  0.50551492  0.63208156  0.50584926    -0.52400
O951        O  0.06381822  0.67431664  0.94756260    -0.75600
O952        O  0.46450506  0.67828845  0.96297963    -0.82400
O953        O  0.09149969  0.69348903  0.57755698    -0.82900
O954        O  0.45987966  0.72516601  0.92548883    -0.79700
O955        O  0.05750301  0.65713884  0.53952573    -0.91400
O956        O  0.10369541  0.72133071  0.93387517    -0.77300
O957        O  0.02636929  0.74170141  0.95286331    -0.86800
O958        O  0.08062177  0.72926716  0.50841862    -0.86500
O959        O  0.46459444  0.73226196  0.50650222    -0.73300
O960        O  0.01544535  0.72078318  0.55606834    -0.85400
Zr961      Zr  0.02160063  0.83877146  0.52987589     2.26400
Zr962      Zr  0.46963416  0.77823533  0.96201916     2.06300
Zr963      Zr  0.07322626  0.75512306  0.56645571     2.10000
Zr964      Zr  0.08390314  0.77539837  0.96469016     1.78800
O965        O  0.06859491  0.73936322  0.62917362    -0.94200
O966        O  0.07873817  0.78976841  0.90164193    -0.42000
O967        O  0.07861433  0.80163923  0.52247734    -0.78600
O968        O  0.02778232  0.81318165  0.97090736    -0.97300
O969        O  0.46296018  0.80535974  0.51951104    -0.90600
O970        O  0.01753608  0.79319117  0.57483964    -0.93500
C971        C  0.09192299  0.68866913  0.92982057     1.00300
C972        C  0.08144397  0.66252989  0.56534797     1.13200
C973        C  0.44712129  0.69534163  0.93787083     1.04000
O974        O  0.45840858  0.79333484  0.89990470    -0.95600
O975        O  0.45422550  0.83997965  0.94837524    -0.91400
O976        O  0.48973419  0.87666978  0.98491844    -0.84500
C977        C  0.46567613  0.87102927  0.95924163     1.10600
O978        O  0.42396578  0.70614374  0.58311974    -0.97600
Zr979      Zr  0.45995926  0.75963070  0.56377650     1.88900
O980        O  0.47935221  0.86239047  0.57723831    -0.74300
O981        O  0.39927015  0.77272933  0.96890852    -0.53500
O982        O  0.39051692  0.76355862  0.55060796    -0.98200
O983        O  0.46594995  0.74655670  0.62705133    -0.55400
O984        O  0.43934839  0.81557883  0.59123521    -0.74800
C985        C  0.45049619  0.84860203  0.59424287     0.97600
O986        O  0.03684502  0.90331200  0.02820458    -0.63600
O987        O  0.14427485  0.75749982  0.56720307    -0.58400
O988        O  0.08527145  0.85145928  0.55765622    -0.95100
O989        O  0.09092215  0.80829404  0.59937995    -0.93500
O990        O  0.15311427  0.77114897  0.97843769    -0.93900
O991        O  0.12016149  0.82940762  0.94770986    -0.92600
C992        C  0.10292686  0.83697051  0.58427340     1.16400
H993        H  0.10334966  0.71380873  0.50724009     0.32400
H994        H  0.03027106  0.83172716  0.95302415     0.43200
H995        H  0.01739659  0.80358402  0.59843911     0.36700
H996        H  0.44046266  0.71907482  0.50415191     0.33200
H997        H  0.10427162  0.78284653  0.89137402     0.25000
H998        H  0.39060672  0.79706967  0.97676820     0.30900
H999        H  0.37838126  0.77284360  0.57272740     0.36900
H1000       H  0.16563927  0.76409828  0.95572538     0.31300
H1001       H  0.15171820  0.74868990  0.59108829     0.30200
H1002       H  0.09551575  0.74167482  0.63840205     0.31900
H1003       H  0.47622957  0.76900670  0.63805898     0.30800
H1004       H  0.10829322  0.84922977  0.96183993     0.34800
H1005       H  0.04304529  0.91022387  0.05302540     0.27600
H1006       H  0.50467308  0.62123728  0.48174748     0.31800
H1007       H  0.40509061  0.71471756  0.60122041     0.34700
H1008       H  0.15277916  0.73803444  0.55076957     0.27300
H1009       H  0.06194219  0.90501887  0.01530382     0.40100
H1010       H  0.48473036  0.79814756  0.89021370     0.30200
H1011       H  0.06026312  0.77164602  0.89192477     0.37800
H1012       H  0.48766911  0.72897938  0.62865834     0.29700
H1013       H  0.38923081  0.77039843  0.94432797     0.29700
H1014       H  0.47810783  0.63220537  0.51411714     0.30000
C1015       C  0.35084860  0.69557655  0.89412632     0.79200
N1016       N  0.38929780  0.70165505  0.90034413    -0.79100
C1017       C  0.40821228  0.68348455  0.92652328     0.81600
N1018       N  0.38851218  0.65872928  0.94610953    -0.79100
C1019       C  0.35001172  0.65272217  0.94025182     0.81700
N1020       N  0.33118023  0.67104047  0.91412439    -0.80800
Zr1021     Zr  0.27238215  0.58874529  0.52541667     2.17500
O1022       O  0.25532812  0.65223332  0.01673206    -0.52400
O1023       O  0.31362063  0.60996985  0.57498186    -0.75600
O1024       O  0.21432484  0.60599865  0.55934100    -0.82400
O1025       O  0.34160719  0.59086982  0.94522693    -0.84100
O1026       O  0.20987296  0.55914109  0.59686200    -0.79700
O1027       O  0.30734901  0.62725290  0.98302054    -0.91400
O1028       O  0.35360756  0.56301948  0.58860482    -0.77300
O1029       O  0.27619998  0.54258978  0.56964148    -0.86800
O1030       O  0.33054939  0.55509692  0.51420832    -0.86500
O1031       O  0.21454367  0.55191692  0.51594017    -0.73300
O1032       O  0.26551350  0.56351611  0.96641651    -0.85400
Zr1033     Zr  0.27161956  0.94543201  0.49261761     2.26400
Zr1034     Zr  0.21953982  0.50596531  0.56043492     2.06300
Zr1035     Zr  0.32331461  0.52919055  0.95618158     2.10000
Zr1036     Zr  0.33377511  0.50893201  0.55789179     1.78800
O1037       O  0.31825904  0.54477717  0.89346067    -0.94200
O1038       O  0.32861052  0.49477755  0.62098750    -0.42000
O1039       O  0.32859208  0.98262096  0.50013798    -0.78600
O1040       O  0.27772714  0.97104617  0.55158041    -0.97300
O1041       O  0.21298472  0.97886012  0.50292044    -0.90600
O1042       O  0.26770546  0.99103508  0.94768374    -0.93500
C1043       C  0.34177559  0.59565203  0.59268805     1.00300
C1044       C  0.33144238  0.62184609  0.95731942     1.13200
C1045       C  0.19703253  0.58893636  0.58448108     1.04000
O1046       O  0.20783898  0.99104935  0.62253274    -0.95600
O1047       O  0.20441267  0.94422452  0.57433150    -0.91400
O1048       O  0.23936349  0.90752266  0.53735590    -0.84500
C1049       C  0.21557702  0.91316969  0.56324332     1.10600
O1050       O  0.17402219  0.57812408  0.93964382    -0.97600
Zr1051     Zr  0.21011837  0.52459226  0.95864484     1.88900
O1052       O  0.22949007  0.92185596  0.94512859    -0.74300
O1053       O  0.14919003  0.51127288  0.55324807    -0.53500
O1054       O  0.14058139  0.52074597  0.97133953    -0.98200
O1055       O  0.21662829  0.53787775  0.89545472    -0.55400
O1056       O  0.18945423  0.96866364  0.93120233    -0.74800
C1057       C  0.20059721  0.93564410  0.92817408     0.97600
O1058       O  0.28693140  0.88090776  0.49453248    -0.63600
O1059       O  0.39437388  0.52711441  0.95501906    -0.58400
O1060       O  0.33531495  0.93272995  0.96487892    -0.95100
O1061       O  0.34115463  0.97604938  0.92331259    -0.93500
O1062       O  0.40287720  0.51317474  0.54368993    -0.93900
O1063       O  0.37018070  0.95519471  0.57538716    -0.92600
C1064       C  0.35306686  0.94730895  0.93835882     1.16400
H1065       H  0.35325742  0.57058109  0.51542446     0.32400
H1066       H  0.28022310  0.95246957  0.56943210     0.43200
H1067       H  0.26763351  0.98063608  0.92408708     0.36700
H1068       H  0.19037607  0.56505216  0.51824798     0.33200
H1069       H  0.35435028  0.50119912  0.63114145     0.25000
H1070       H  0.14065056  0.98692866  0.54528175     0.30900
H1071       H  0.12857681  0.51171911  0.94905818     0.36900
H1072       H  0.41569633  0.51929032  0.56652389     0.31300
H1073       H  0.40164269  0.53680076  0.93141943     0.30200
H1074       H  0.34522090  0.54300454  0.88422339     0.31900
H1075       H  0.22749030  0.51563848  0.88450644     0.30800
H1076       H  0.36101372  0.93593584  0.55900594     0.34800
H1077       H  0.29272958  0.87383704  0.46967363     0.27600
H1078       H  0.25431756  0.66302613  0.04085110     0.31800
H1079       H  0.15565119  0.56974347  0.92103155     0.34700
H1080       H  0.40288985  0.54602043  0.97206646     0.27300
H1081       H  0.31223478  0.87928963  0.50710571     0.40100
H1082       H  0.23410429  0.48647700  0.63246393     0.30200
H1083       H  0.31061672  0.51328434  0.63075731     0.37800
H1084       H  0.23799838  0.55584576  0.89409608     0.29700
H1085       H  0.13901195  0.51350392  0.57778940     0.29700
H1086       H  0.22797795  0.65211050  0.00830476     0.30000
C1087       C  0.10088166  0.58867593  0.62837572     0.79200
N1088       N  0.13930829  0.58257539  0.62209021    -0.79100
C1089       C  0.15817828  0.60078396  0.59591442     0.81600
N1090       N  0.13847913  0.62560771  0.57642115    -0.79100
C1091       C  0.10000923  0.63164097  0.58236119     0.81700
N1092       N  0.08120397  0.61327680  0.60846751    -0.80800
C1093       C  0.17871690  0.91424411  0.90165376     0.79200
N1094       N  0.14846296  0.93132863  0.88558441    -0.79100
C1095       C  0.13096049  0.91694658  0.85676154     0.81600
N1096       N  0.14381115  0.88493386  0.84372295    -0.79100
C1097       C  0.17348692  0.86676202  0.85951214     0.81700
N1098       N  0.19175592  0.88186897  0.88834407    -0.80800
Zr1099     Zr  0.00465811  0.52036355  0.69108832     2.17500
O1100       O  0.01596783  0.00527062  0.62866957    -0.52400
O1101       O  0.45325835  0.56321022  0.67368292    -0.75600
O1102       O  0.46438754  0.96995159  0.66858208    -0.82400
O1103       O  0.10023966  0.57374138  0.68857018    -0.84100
O1104       O  0.43499379  0.94601103  0.71731525    -0.79700
O1105       O  0.04869856  0.55640056  0.65439630    -0.91400
O1106       O  0.44235847  0.60159321  0.72000020    -0.77300
O1107       O  0.45634925  0.52486660  0.73653800    -0.86800
O1108       O  0.02098041  0.57231912  0.72594212    -0.86500
O1109       O  0.01213160  0.96569666  0.72545078    -0.73300
O1110       O  0.06928543  0.50982230  0.71437526    -0.85400
Zr1111     Zr  0.04252618  0.51296924  0.83062832     2.26400
Zr1112     Zr  0.46368212  0.97095100  0.77103272     2.06300
Zr1113     Zr  0.08445692  0.56155441  0.75002904     2.10000
Zr1114     Zr  0.47336275  0.57632754  0.77169260     1.78800
O1115       O  0.15403520  0.54889042  0.74701451    -0.94200
O1116       O  0.40435396  0.57314795  0.78636066    -0.42000
O1117       O  0.03659414  0.56658644  0.79556180    -0.78600
O1118       O  0.47775930  0.52287272  0.80748478    -0.97300
O1119       O  0.02683554  0.96084573  0.79591057    -0.90600
O1120       O  0.09153225  0.50850521  0.78556063    -0.93500
C1121       C  0.43703265  0.59122520  0.68788472     1.00300
C1122       C  0.08203324  0.57161655  0.65891755     1.13200
C1123       C  0.44148505  0.94710216  0.68370728     1.04000
O1124       O  0.39413697  0.98129940  0.77912200    -0.95600
O1125       O  0.44938627  0.95402718  0.83165867    -0.91400
O1126       O  0.49804578  0.97636832  0.86659885    -0.84500
C1127       C  0.46652779  0.95823370  0.86166109     1.10600
O1128       O  0.09581826  0.92866771  0.69502835    -0.97600
Zr1129     Zr  0.07485841  0.95672174  0.75064821     1.88900
O1130       O  0.09225364  0.96936946  0.84837231    -0.74300
O1131       O  0.45808230  0.90534355  0.77655036    -0.53500
O1132       O  0.05345012  0.89380547  0.74670824    -0.98200
O1133       O  0.14547771  0.95583676  0.74340537    -0.55400
O1134       O  0.09742329  0.92780117  0.80399341    -0.74800
C1135       C  0.10457345  0.93919429  0.83543492     0.97600
O1136       O  0.54282982  0.53106323  0.89312541    -0.63600
O1137       O  0.09642882  0.62612970  0.74268057    -0.58400
O1138       O  0.07602076  0.56808333  0.85231326    -0.95100
O1139       O  0.10553991  0.59211893  0.80369562    -0.93500
O1140       O  0.49199248  0.64003036  0.77160633    -0.93900
O1141       O  0.45933456  0.60885073  0.82668590    -0.92600
C1142       C  0.09791873  0.59183908  0.83711517     1.16400
H1143       H  0.02088706  0.59404189  0.71162286     0.32400
H1144       H  0.45914638  0.52495547  0.82663897     0.43200
H1145       H  0.11745037  0.50707271  0.79559947     0.36700
H1146       H  0.00850625  0.94410083  0.71130467     0.33200
H1147       H  0.39391151  0.59705555  0.77935797     0.25000
H1148       H  0.42994032  0.90019156  0.77359765     0.30900
H1149       H  0.07640987  0.87921819  0.75371257     0.36900
H1150       H  0.46746481  0.65338536  0.76706389     0.31300
H1151       H  0.12170152  0.62741392  0.73005883     0.30200
H1152       H  0.16658414  0.57072373  0.75725101     0.31900
H1153       H  0.15641615  0.96100829  0.76723806     0.30800
H1154       H  0.47418893  0.59566118  0.84513514     0.34800
H1155       H  0.51528459  0.53603547  0.89932286     0.27600
H1156       H  0.99023555  0.00663980  0.61681100     0.31800
H1157       H  0.11262387  0.90798901  0.70180710     0.34700
H1158       H  0.07695635  0.63442001  0.72507720     0.27300
H1159       H  0.54978708  0.50897214  0.90659111     0.40100
H1160       H  0.38414190  0.98703515  0.75509913     0.30200
H1161       H  0.39317502  0.55615067  0.76868974     0.37800
H1162       H  0.15145236  0.97766709  0.72920678     0.29700
H1163       H  0.47045643  0.89529355  0.75487398     0.29700
H1164       H  0.02319530  0.97928163  0.62816269     0.30000
C1165       C  0.36205748  0.61594737  0.62117907     0.79200
N1166       N  0.39233627  0.59877518  0.63743353    -0.79100
C1167       C  0.40888001  0.61260343  0.66707700     0.81600
N1168       N  0.39486221  0.64395976  0.68070775    -0.79100
C1169       C  0.36504074  0.66204425  0.66497097     0.81700
N1170       N  0.34796870  0.64768529  0.63518709    -0.80800
C1171       C  0.11220728  0.66836726  0.90133010     0.79200
N1172       N  0.09810100  0.63664376  0.88728802    -0.79100
C1173       C  0.11517261  0.62228675  0.85749950     0.81600
N1174       N  0.14502623  0.64036074  0.84180212    -0.79100
C1175       C  0.15905082  0.67170436  0.85546873     0.81700
N1176       N  0.14250182  0.68552907  0.88510477    -0.80800
C1177       C  0.19768058  0.84248550  0.62998485     0.79200
N1178       N  0.21702840  0.86660749  0.60922519    -0.79100
C1179       C  0.19829847  0.88253311  0.58149928     0.81600
N1180       N  0.16042318  0.87460876  0.57480348    -0.79100
C1181       C  0.14117902  0.85042992  0.59526437     0.81700
N1182       N  0.15985933  0.83458080  0.62296787    -0.80800
Zr1183     Zr  0.25469867  0.76395681  0.83143534     2.17500
O1184       O  0.26625861  0.77937993  0.89373186    -0.52400
O1185       O  0.20325443  0.72120814  0.84885783    -0.75600
O1186       O  0.21424748  0.81423099  0.85397042    -0.82400
O1187       O  0.35032005  0.71088317  0.83401045    -0.84100
O1188       O  0.18498364  0.83825961  0.80522056    -0.79700
O1189       O  0.29845857  0.72757927  0.86807882    -0.91400
O1190       O  0.19264516  0.68265467  0.80262615    -0.77300
O1191       O  0.20639988  0.75939223  0.78601708    -0.86800
O1192       O  0.27111751  0.71197692  0.79662164    -0.86500
O1193       O  0.26209083  0.81865762  0.79708322    -0.73300
O1194       O  0.31928676  0.77451693  0.80808908    -0.85400
Zr1195     Zr  0.29250244  0.77134535  0.69189478     2.26400
Zr1196     Zr  0.21363518  0.81329894  0.75151581     2.06300
Zr1197     Zr  0.33455738  0.72279913  0.77247914     2.10000
Zr1198     Zr  0.22349658  0.70794695  0.75089562     1.78800
O1199       O  0.40413203  0.73557700  0.77509654    -0.94200
O1200       O  0.15445073  0.71134486  0.73651369    -0.42000
O1201       O  0.28667995  0.71769857  0.72695013    -0.78600
O1202       O  0.22777675  0.76138722  0.71506890    -0.97300
O1203       O  0.27677454  0.82347486  0.72661886    -0.90600
O1204       O  0.34151899  0.77586957  0.73695635    -0.93500
C1205       C  0.18718578  0.69310010  0.83469237     1.00300
C1206       C  0.33195275  0.71265663  0.86360346     1.13200
C1207       C  0.19139105  0.83711186  0.83883306     1.04000
O1208       O  0.14422802  0.80203100  0.74364643    -0.95600
O1209       O  0.19955621  0.83054963  0.69094346    -0.91400
O1210       O  0.24780756  0.80766081  0.65587538    -0.84500
C1211       C  0.21648459  0.82606345  0.66088184     1.10600
O1212       O  0.34604792  0.85496304  0.82775750    -0.97600
Zr1213     Zr  0.32481868  0.82763750  0.77187276     1.88900
O1214       O  0.34218880  0.81496986  0.67412942    -0.74300
O1215       O  0.20698211  0.87882526  0.74593713    -0.53500
O1216       O  0.30374613  0.89063743  0.77616956    -0.98200
O1217       O  0.39543635  0.82853192  0.77901215    -0.55400
O1218       O  0.34735033  0.85656088  0.71849515    -0.74800
C1219       C  0.35452194  0.84514185  0.68706093     0.97600
O1220       O  0.29296305  0.75321074  0.62940788    -0.63600
O1221       O  0.34705614  0.65835447  0.78037227    -0.58400
O1222       O  0.32599452  0.71629832  0.67011174    -0.95100
O1223       O  0.35535911  0.69216687  0.71875826    -0.93500
O1224       O  0.24217572  0.64425496  0.75062129    -0.93900
O1225       O  0.20909823  0.67511914  0.69617434    -0.92600
C1226       C  0.34781010  0.69249703  0.68532723     1.16400
H1227       H  0.27105358  0.69024528  0.81093086     0.32400
H1228       H  0.20914388  0.75928330  0.69593189     0.43200
H1229       H  0.36742133  0.77733481  0.72688996     0.36700
H1230       H  0.25843164  0.84024044  0.81124335     0.33200
H1231       H  0.14426045  0.68702547  0.74236704     0.25000
H1232       H  0.17883663  0.88366406  0.74934290     0.30900
H1233       H  0.32675351  0.90514548  0.76913093     0.36900
H1234       H  0.21791109  0.63090515  0.75622066     0.31300
H1235       H  0.37233099  0.65728630  0.79302105     0.30200
H1236       H  0.41659098  0.71431727  0.76367125     0.31900
H1237       H  0.40633775  0.82317032  0.75520768     0.30800
H1238       H  0.22334517  0.68853738  0.67749069     0.34800
H1239       H  0.26549392  0.74776768  0.62330385     0.27600
H1240       H  0.24057524  0.77812038  0.90568978     0.31800
H1241       H  0.36238907  0.87602728  0.82117936     0.34700
H1242       H  0.32761861  0.65006034  0.79800731     0.27300
H1243       H  0.29944130  0.77539333  0.61588920     0.40100
H1244       H  0.13421175  0.79712757  0.76784219     0.30200
H1245       H  0.14316708  0.72732801  0.75501940     0.37800
H1246       H  0.40140495  0.80680215  0.79336225     0.29700
H1247       H  0.21967311  0.88909559  0.76736380     0.29700
H1248       H  0.27353177  0.80536098  0.89405527     0.30000
C1249       C  0.94776391  0.44179362  0.39257354     0.79200
N1250       N  0.90995904  0.44970711  0.39963873    -0.79100
C1251       C  0.89130042  0.43383978  0.42734354     0.81600
N1252       N  0.91054503  0.40962335  0.44775474    -0.79100
C1253       C  0.94840299  0.40167885  0.44100680     0.81700
N1254       N  0.96712247  0.41764034  0.41329226    -0.80800
C1255       C  0.92868488  0.37000972  0.12081362     0.79200
N1256       N  0.89841830  0.35295287  0.13689560    -0.79100
C1257       C  0.88095148  0.36734712  0.16573346     0.81600
N1258       N  0.89386192  0.39933042  0.17878394    -0.79100
C1259       C  0.92357232  0.41746059  0.16301205     0.81700
N1260       N  0.94179852  0.40235392  0.13415302    -0.80800
Zr1261     Zr  0.52251090  0.19555517  0.99707390     2.17500
O1262       O  0.00551490  0.13208148  0.00584888    -0.52400
O1263       O  0.56381839  0.17431649  0.44756289    -0.75600
O1264       O  0.96450531  0.17828832  0.46297948    -0.82400
O1265       O  0.59149987  0.19348909  0.07755679    -0.82900
O1266       O  0.95987990  0.22516590  0.42548873    -0.79700
O1267       O  0.55750276  0.15713885  0.03952589    -0.91400
O1268       O  0.60369516  0.22133074  0.43387512    -0.77300
O1269       O  0.52636910  0.24170141  0.45286340    -0.86800
O1270       O  0.58062171  0.22926715  0.00841856    -0.86500
O1271       O  0.96459438  0.23226205  0.00650208    -0.73300
O1272       O  0.51544541  0.22078318  0.05606827    -0.85400
Zr1273     Zr  0.52160085  0.33877145  0.02987588     2.26400
Zr1274     Zr  0.96963411  0.27823515  0.46201928     2.06300
Zr1275     Zr  0.57322629  0.25512311  0.06645558     2.10000
Zr1276     Zr  0.58390297  0.27539835  0.46469023     1.78800
O1277       O  0.56859488  0.23936332  0.12917346    -0.94200
O1278       O  0.57873794  0.28976852  0.40164202    -0.42000
O1279       O  0.57861455  0.30163926  0.02247722    -0.78600
O1280       O  0.52778213  0.31318155  0.47090739    -0.97300
O1281       O  0.96296015  0.30535979  0.01951096    -0.90600
O1282       O  0.51753617  0.29319120  0.07483962    -0.93500
C1283       C  0.59192296  0.18866907  0.42982071     1.00300
C1284       C  0.58144393  0.16252992  0.06534797     1.13200
C1285       C  0.94712153  0.19534149  0.43787067     1.04000
O1286       O  0.95840819  0.29333495  0.39990496    -0.95600
O1287       O  0.95422522  0.33997936  0.44837513    -0.91400
O1288       O  0.98973405  0.37666951  0.48491819    -0.84500
C1289       C  0.96567592  0.37102900  0.45924143     1.10600
O1290       O  0.92396565  0.20614355  0.08311906    -0.97600
Zr1291     Zr  0.95995920  0.25963071  0.06377641     1.88900
O1292       O  0.97935230  0.36239053  0.07723842    -0.74300
O1293       O  0.89927013  0.27272902  0.46890893    -0.53500
O1294       O  0.89051681  0.26355929  0.05060813    -0.98200
O1295       O  0.96594987  0.24655654  0.12705126    -0.55400
O1296       O  0.93934865  0.31557880  0.09123542    -0.74800
C1297       C  0.95049635  0.34860205  0.09424304     0.97600
O1298       O  0.53684497  0.40331204  0.52820467    -0.63600
O1299       O  0.64427484  0.25749996  0.06720262    -0.58400
O1300       O  0.58527178  0.35145926  0.05765595    -0.95100
O1301       O  0.59092214  0.30829412  0.09937978    -0.93500
O1302       O  0.65311413  0.27114929  0.47843773    -0.93900
O1303       O  0.62016194  0.32940725  0.44770997    -0.92600
C1304       C  0.60292704  0.33697049  0.08427320     1.16400
H1305       H  0.60334955  0.21380881  0.00724014     0.32400
H1306       H  0.53027092  0.33172686  0.45302425     0.43200
H1307       H  0.51739677  0.30358408  0.09843923     0.36700
H1308       H  0.94046266  0.21907503  0.00415175     0.33200
H1309       H  0.60427135  0.28284678  0.39137406     0.25000
H1310       H  0.89060657  0.29706946  0.47676799     0.30900
H1311       H  0.87838127  0.27284364  0.07272786     0.36900
H1312       H  0.66563896  0.26409736  0.45572574     0.31300
H1313       H  0.65171831  0.24869017  0.09108786     0.30200
H1314       H  0.59551569  0.24167517  0.13840192     0.31900
H1315       H  0.97622995  0.26900635  0.13805892     0.30800
H1316       H  0.60829421  0.34922940  0.46184039     0.34800
H1317       H  0.54304522  0.41022391  0.55302553     0.27600
H1318       H  0.00467309  0.12123730  0.98174702     0.31800
H1319       H  0.90509086  0.21471717  0.10122014     0.34700
H1320       H  0.65277908  0.23803449  0.05076919     0.27300
H1321       H  0.56194211  0.40501897  0.51530396     0.40100
H1322       H  0.98473012  0.29814578  0.39021340     0.30200
H1323       H  0.56026290  0.27164607  0.39192483     0.37800
H1324       H  0.98766869  0.22897885  0.12865824     0.29700
H1325       H  0.88923074  0.27039740  0.44432839     0.29700
H1326       H  0.97810784  0.13220517  0.01411670     0.30000
C1327       C  0.85084873  0.19557639  0.39412623     0.79200
N1328       N  0.88929796  0.20165489  0.40034399    -0.79100
C1329       C  0.90821247  0.18348441  0.42652314     0.81600
N1330       N  0.88851238  0.15872914  0.44610942    -0.79100
C1331       C  0.85001190  0.15272204  0.44025173     0.81700
N1332       N  0.83118039  0.17104033  0.41412432    -0.80800
Zr1333     Zr  0.77238213  0.08874539  0.02541682     2.17500
O1334       O  0.75532839  0.15223331  0.51673223    -0.52400
O1335       O  0.81362062  0.10996986  0.07498206    -0.75600
O1336       O  0.71432490  0.10599880  0.05934115    -0.82400
O1337       O  0.84160741  0.09086973  0.44522700    -0.84100
O1338       O  0.70987291  0.05914116  0.09686205    -0.79700
O1339       O  0.80734896  0.12725288  0.48302036    -0.91400
O1340       O  0.85360779  0.06301963  0.08860492    -0.77300
O1341       O  0.77619993  0.04258984  0.06964160    -0.86800
O1342       O  0.83054939  0.05509701  0.01420850    -0.86500
O1343       O  0.71454363  0.05191704  0.01594030    -0.73300
O1344       O  0.76551347  0.06351598  0.46641648    -0.85400
Zr1345     Zr  0.77161965  0.44543206  0.99261779     2.26400
Zr1346     Zr  0.71953978  0.00596536  0.06043499     2.06300
Zr1347     Zr  0.82331455  0.02919047  0.45618139     2.10000
Zr1348     Zr  0.83377513  0.00893215  0.05789206     1.78800
O1349       O  0.81825894  0.04477752  0.39346058    -0.94200
O1350       O  0.82861020  0.99477788  0.12098777    -0.42000
O1351       O  0.82859219  0.48262104  0.00013821    -0.78600
O1352       O  0.77772724  0.47104621  0.05158065    -0.97300
O1353       O  0.71298474  0.47886009  0.00292064    -0.90600
O1354       O  0.76770550  0.49103499  0.44768346    -0.93500
C1355       C  0.84177570  0.09565214  0.09268818     1.00300
C1356       C  0.83144251  0.12184602  0.45731938     1.13200
C1357       C  0.69703258  0.08893650  0.08448120     1.04000
O1358       O  0.70783919  0.49104973  0.12253304    -0.95600
O1359       O  0.70441288  0.44422441  0.07433160    -0.91400
O1360       O  0.73936372  0.40752257  0.03735599    -0.84500
C1361       C  0.71557723  0.41316958  0.06324339     1.10600
O1362       O  0.67402208  0.07812374  0.43964308    -0.97600
Zr1363     Zr  0.71011831  0.02459220  0.45864477     1.88900
O1364       O  0.72948991  0.42185582  0.44512849    -0.74300
O1365       O  0.64919002  0.01127279  0.05324765    -0.53500
O1366       O  0.64058138  0.02074605  0.47134000    -0.98200
O1367       O  0.71662813  0.03787791  0.39545472    -0.55400
O1368       O  0.68945422  0.46866359  0.43120217    -0.74800
C1369       C  0.70059708  0.43564402  0.42817399     0.97600
O1370       O  0.78693150  0.38090785  0.99453253    -0.63600
O1371       O  0.89437380  0.02711398  0.45501880    -0.58400
O1372       O  0.83531494  0.43272997  0.46487889    -0.95100
O1373       O  0.84115449  0.47604926  0.42331241    -0.93500
O1374       O  0.90287722  0.01317483  0.04369019    -0.93900
O1375       O  0.87018038  0.45519476  0.07538775    -0.92600
C1376       C  0.85306675  0.44730886  0.43835867     1.16400
H1377       H  0.85325729  0.07058116  0.01542459     0.32400
H1378       H  0.78022326  0.45246962  0.06943237     0.43200
H1379       H  0.76763348  0.48063611  0.42408666     0.36700
H1380       H  0.69037605  0.06505230  0.01824812     0.33200
H1381       H  0.85435030  0.00119840  0.13114162     0.25000
H1382       H  0.64065068  0.48692866  0.04528127     0.30900
H1383       H  0.62857669  0.01171774  0.44905929     0.36900
H1384       H  0.91569640  0.01928967  0.06652433     0.31300
H1385       H  0.90164262  0.03679991  0.43141905     0.30200
H1386       H  0.84522059  0.04300365  0.38422296     0.31900
H1387       H  0.72748906  0.01563828  0.38450627     0.30800
H1388       H  0.86101368  0.43593599  0.05900631     0.34800
H1389       H  0.79272964  0.37383723  0.96967358     0.27600
H1390       H  0.75431765  0.16302595  0.54085135     0.31800
H1391       H  0.65565011  0.06974259  0.42103184     0.34700
H1392       H  0.90288986  0.04602027  0.47206592     0.27300
H1393       H  0.81223484  0.37928971  0.00710569     0.40100
H1394       H  0.73410423  0.98647679  0.13246388     0.30200
H1395       H  0.81061739  0.01328546  0.13075764     0.37800
H1396       H  0.73799908  0.05584502  0.39409603     0.29700
H1397       H  0.63901168  0.01350336  0.07778890     0.29700
H1398       H  0.72797832  0.15211056  0.50830471     0.30000
C1399       C  0.60088172  0.08867592  0.12837570     0.79200
N1400       N  0.63930839  0.08257555  0.12209032    -0.79100
C1401       C  0.65817837  0.10078416  0.09591456     0.81600
N1402       N  0.63847919  0.12560786  0.07642124    -0.79100
C1403       C  0.60000924  0.13164098  0.08236117     0.81700
N1404       N  0.58120397  0.11327668  0.10846740    -0.80800
C1405       C  0.67871668  0.41424404  0.40165378     0.79200
N1406       N  0.64846264  0.43132853  0.38558452    -0.79100
C1407       C  0.63096016  0.41694647  0.35676166     0.81600
N1408       N  0.64381085  0.38493377  0.34372304    -0.79100
C1409       C  0.67348672  0.36676200  0.35951214     0.81700
N1410       N  0.69175578  0.38186897  0.38834400    -0.80800
Zr1411     Zr  0.50465821  0.02036362  0.19108830     2.17500
O1412       O  0.51596771  0.50527101  0.12866941    -0.52400
O1413       O  0.95325862  0.06321051  0.17368294    -0.75600
O1414       O  0.96438752  0.46995167  0.16858207    -0.82400
O1415       O  0.60023958  0.07374144  0.18857019    -0.84100
O1416       O  0.93499376  0.44601118  0.21731528    -0.79700
O1417       O  0.54869856  0.05640060  0.15439621    -0.91400
O1418       O  0.94235842  0.10159335  0.22000028    -0.77300
O1419       O  0.95634928  0.02486663  0.23653788    -0.86800
O1420       O  0.52098051  0.07231912  0.22594216    -0.86500
O1421       O  0.51213172  0.46569665  0.22545068    -0.73300
O1422       O  0.56928548  0.00982238  0.21437533    -0.85400
Zr1423     Zr  0.54252607  0.01296930  0.33062840     2.26400
Zr1424     Zr  0.96368212  0.47095109  0.27103275     2.06300
Zr1425     Zr  0.58445702  0.06155441  0.25002912     2.10000
Zr1426     Zr  0.97336269  0.07632758  0.27169258     1.78800
O1427       O  0.65403527  0.04889024  0.24701456    -0.94200
O1428       O  0.90435392  0.07314704  0.28636049    -0.42000
O1429       O  0.53659419  0.06658644  0.29556182    -0.78600
O1430       O  0.97775928  0.02287265  0.30748460    -0.97300
O1431       O  0.52683559  0.46084570  0.29591053    -0.90600
O1432       O  0.59153221  0.00850526  0.28556077    -0.93500
C1433       C  0.93703281  0.09122543  0.18788475     1.00300
C1434       C  0.58203325  0.07161656  0.15891750     1.13200
C1435       C  0.94148503  0.44710225  0.18370731     1.04000
O1436       O  0.89413703  0.48129983  0.27912178    -0.95600
O1437       O  0.94938647  0.45402705  0.33165864    -0.91400
O1438       O  0.99804574  0.47636843  0.36659895    -0.84500
C1439       C  0.96652783  0.45823369  0.36166110     1.10600
O1440       O  0.59581854  0.42866827  0.19502810    -0.97600
Zr1441     Zr  0.57485853  0.45672177  0.25064819     1.88900
O1442       O  0.59225347  0.46936944  0.34837235    -0.74300
O1443       O  0.95808167  0.40534363  0.27654988    -0.53500
O1444       O  0.55345037  0.39380551  0.24670828    -0.98200
O1445       O  0.64547788  0.45583669  0.24340548    -0.55400
O1446       O  0.59742303  0.42780106  0.30399349    -0.74800
C1447       C  0.60457320  0.43919421  0.33543500     0.97600
O1448       O  0.04282904  0.03106387  0.39312524    -0.63600
O1449       O  0.59642909  0.12612967  0.24268083    -0.58400
O1450       O  0.57602054  0.06808345  0.35231332    -0.95100
O1451       O  0.60553985  0.09211893  0.30369571    -0.93500
O1452       O  0.99199233  0.14003048  0.27160614    -0.93900
O1453       O  0.95933430  0.10885097  0.32668581    -0.92600
C1454       C  0.59791860  0.09183914  0.33711524     1.16400
H1455       H  0.52088710  0.09404186  0.21162288     0.32400
H1456       H  0.95914629  0.02495528  0.32663873     0.43200
H1457       H  0.61745034  0.00707281  0.29559974     0.36700
H1458       H  0.50850631  0.44410083  0.21130455     0.33200
H1459       H  0.89391158  0.09705528  0.27935985     0.25000
H1460       H  0.92993969  0.40019181  0.27359675     0.30900
H1461       H  0.57641035  0.37921829  0.25371209     0.36900
H1462       H  0.96746461  0.15338550  0.26706398     0.31300
H1463       H  0.62170175  0.12741383  0.23005902     0.30200
H1464       H  0.66658433  0.07072335  0.25725138     0.31900
H1465       H  0.65641625  0.46100870  0.26723812     0.30800
H1466       H  0.97418931  0.09566203  0.34513504     0.34800
H1467       H  0.01528365  0.03603574  0.39932251     0.27600
H1468       H  0.49023546  0.50664042  0.11681090     0.31800
H1469       H  0.61262402  0.40798944  0.20180673     0.34700
H1470       H  0.57695652  0.13442007  0.22507758     0.27300
H1471       H  0.04978659  0.00897308  0.40659120     0.40100
H1472       H  0.88414230  0.48703630  0.25509898     0.30200
H1473       H  0.89317484  0.05615137  0.26868813     0.37800
H1474       H  0.65145257  0.47766673  0.22920647     0.29700
H1475       H  0.97045615  0.39529368  0.25487364     0.29700
H1476       H  0.52319506  0.47928196  0.12816230     0.30000
C1477       C  0.86205759  0.11594755  0.12117917     0.79200
N1478       N  0.89233647  0.09877542  0.13743354    -0.79100
C1479       C  0.90888022  0.11260367  0.16707701     0.81600
N1480       N  0.89486239  0.14395995  0.18070781    -0.79100
C1481       C  0.86504082  0.16204436  0.16497113     0.81700
N1482       N  0.84796871  0.14768538  0.13518728    -0.80800
C1483       C  0.61220726  0.16836720  0.40133026     0.79200
N1484       N  0.59810100  0.13664371  0.38728817    -0.79100
C1485       C  0.61517248  0.12228680  0.35749955     0.81600
N1486       N  0.64502598  0.14036089  0.34180209    -0.79100
C1487       C  0.65905063  0.17170445  0.35546878     0.81700
N1488       N  0.64250174  0.18552906  0.38510491    -0.80800
C1489       C  0.69768066  0.34248541  0.12998486     0.79200
N1490       N  0.71702853  0.36660741  0.10922526    -0.79100
C1491       C  0.69829868  0.38253301  0.08149930     0.81600
N1492       N  0.66042343  0.37460862  0.07480339    -0.79100
C1493       C  0.64117922  0.35042980  0.09526424     0.81700
N1494       N  0.65985943  0.33458070  0.12296781    -0.80800
Zr1495     Zr  0.75469859  0.26395678  0.33143544     2.17500
O1496       O  0.76625846  0.27937995  0.39373195    -0.52400
O1497       O  0.70325449  0.22120804  0.34885809    -0.75600
O1498       O  0.71424737  0.31423106  0.35397036    -0.82400
O1499       O  0.85032005  0.21088325  0.33401047    -0.84100
O1500       O  0.68498350  0.33825972  0.30522051    -0.79700
O1501       O  0.79845852  0.22757910  0.36807889    -0.91400
O1502       O  0.69264463  0.18265503  0.30262614    -0.77300
O1503       O  0.70639984  0.25939223  0.28601711    -0.86800
O1504       O  0.77111743  0.21197694  0.29662168    -0.86500
O1505       O  0.76209076  0.31865762  0.29708336    -0.73300
O1506       O  0.81928669  0.27451688  0.30808925    -0.85400
Zr1507     Zr  0.79250248  0.27134540  0.19189491     2.26400
Zr1508     Zr  0.71363519  0.31329899  0.25151585     2.06300
Zr1509     Zr  0.83455731  0.22279914  0.27247923     2.10000
Zr1510     Zr  0.72349652  0.20794693  0.25089563     1.78800
O1511       O  0.90413200  0.23557680  0.27509687    -0.94200
O1512       O  0.65445085  0.21134513  0.23651306    -0.42000
O1513       O  0.78667992  0.21769862  0.22695022    -0.78600
O1514       O  0.72777678  0.26138721  0.21506897    -0.97300
O1515       O  0.77677459  0.32347491  0.22661899    -0.90600
O1516       O  0.84151897  0.27586957  0.23695654    -0.93500
C1517       C  0.68718555  0.19310022  0.33469248     1.00300
C1518       C  0.83195276  0.21265656  0.36360348     1.13200
C1519       C  0.69139091  0.33711192  0.33883302     1.04000
O1520       O  0.64422793  0.30203166  0.24364623    -0.95600
O1521       O  0.69955621  0.33054969  0.19094350    -0.91400
O1522       O  0.74780750  0.30766066  0.15587548    -0.84500
C1523       C  0.71648458  0.32606339  0.16088189     1.10600
O1524       O  0.84604810  0.35496284  0.32775777    -0.97600
Zr1525     Zr  0.82481865  0.32763745  0.27187300     1.88900
O1526       O  0.84218867  0.31497006  0.17412956    -0.74300
O1527       O  0.70698318  0.37882539  0.24593703    -0.53500
O1528       O  0.80374616  0.39063738  0.27616987    -0.98200
O1529       O  0.89543628  0.32853180  0.27901247    -0.55400
O1530       O  0.84735081  0.35656075  0.21849553    -0.74800
C1531       C  0.85452210  0.34514189  0.18706119     0.97600
O1532       O  0.79296346  0.25321092  0.12940791    -0.63600
O1533       O  0.84705528  0.15835436  0.28037226    -0.58400
O1534       O  0.82599440  0.21629825  0.17011198    -0.95100
O1535       O  0.85535963  0.19216721  0.21875837    -0.93500
O1536       O  0.74217510  0.14425478  0.25062164    -0.93900
O1537       O  0.70909843  0.17511896  0.19617434    -0.92600
C1538       C  0.84781028  0.19249716  0.18532740     1.16400
H1539       H  0.77105350  0.19024532  0.31093093     0.32400
H1540       H  0.70914393  0.25928324  0.19593195     0.43200
H1541       H  0.86742130  0.27733477  0.22689028     0.36700
H1542       H  0.75843158  0.34024051  0.31124346     0.33200
H1543       H  0.64426025  0.18702599  0.24236677     0.25000
H1544       H  0.67883773  0.38366456  0.24934263     0.30900
H1545       H  0.82675336  0.40514538  0.26913078     0.36900
H1546       H  0.71791019  0.13090517  0.25622049     0.31300
H1547       H  0.87233001  0.15728592  0.29302112     0.30200
H1548       H  0.91659091  0.21431717  0.26367137     0.31900
H1549       H  0.90633769  0.32317027  0.25520801     0.30800
H1550       H  0.72334521  0.18853734  0.17749064     0.34800
H1551       H  0.76549441  0.24776756  0.12330385     0.27600
H1552       H  0.74057513  0.27812054  0.40568981     0.31800
H1553       H  0.86238906  0.37602721  0.32117963     0.34700
H1554       H  0.82761758  0.15006040  0.29800726     0.27300
H1555       H  0.79944151  0.27539361  0.11588926     0.40100
H1556       H  0.63421142  0.29712873  0.26784201     0.30200
H1557       H  0.64316723  0.22732891  0.25501832     0.37800
H1558       H  0.90140485  0.30680196  0.29336250     0.29700
H1559       H  0.71967419  0.38909555  0.26736376     0.29700
H1560       H  0.77353173  0.30536104  0.39405526     0.30000
C1561       C  0.94776395  0.44179377  0.89257362     0.79200
N1562       N  0.90995907  0.44970721  0.89963881    -0.79100
C1563       C  0.89130052  0.43383991  0.92734366     0.81600
N1564       N  0.91054522  0.40962358  0.94775491    -0.79100
C1565       C  0.94840320  0.40167918  0.94100699     0.81700
N1566       N  0.96712263  0.41764063  0.91329240    -0.80800
C1567       C  0.92868480  0.37000976  0.62081344     0.79200
N1568       N  0.89841820  0.35295290  0.63689538    -0.79100
C1569       C  0.88095138  0.36734712  0.66573325     0.81600
N1570       N  0.89386180  0.39933042  0.67878377    -0.79100
C1571       C  0.92357226  0.41746057  0.66301195     0.81700
N1572       N  0.94179847  0.40235391  0.63415292    -0.80800
Zr1573     Zr  0.52251091  0.19555515  0.49707399     2.17500
O1574       O  0.00551485  0.13208164  0.50584937    -0.52400
O1575       O  0.56381828  0.17431672  0.94756259    -0.75600
O1576       O  0.96450516  0.17828840  0.96297961    -0.82400
O1577       O  0.59149979  0.19348910  0.57755695    -0.82900
O1578       O  0.95987985  0.22516599  0.92548887    -0.79700
O1579       O  0.55750295  0.15713889  0.53952583    -0.91400
O1580       O  0.60369552  0.22133074  0.93387509    -0.77300
O1581       O  0.52636923  0.24170148  0.95286335    -0.86800
O1582       O  0.58062165  0.22926719  0.50841864    -0.86500
O1583       O  0.96459449  0.23226186  0.50650223    -0.73300
O1584       O  0.51544546  0.22078322  0.55606833    -0.85400
Zr1585     Zr  0.52160065  0.33877148  0.52987590     2.26400
Zr1586     Zr  0.96963420  0.27823536  0.96201916     2.06300
Zr1587     Zr  0.57322631  0.25512314  0.56645570     2.10000
Zr1588     Zr  0.58390317  0.27539834  0.96469014     1.78800
O1589       O  0.56859502  0.23936336  0.62917363    -0.94200
O1590       O  0.57873810  0.28976848  0.90164192    -0.42000
O1591       O  0.57861440  0.30163931  0.52247731    -0.78600
O1592       O  0.52778235  0.31318160  0.97090734    -0.97300
O1593       O  0.96296013  0.30535975  0.51951105    -0.90600
O1594       O  0.51753614  0.29319123  0.57483965    -0.93500
C1595       C  0.59192307  0.18866917  0.92982053     1.00300
C1596       C  0.58144397  0.16252995  0.56534801     1.13200
C1597       C  0.94712138  0.19534164  0.93787087     1.04000
O1598       O  0.95840848  0.29333450  0.89990463    -0.95600
O1599       O  0.95422540  0.33997968  0.94837528    -0.91400
O1600       O  0.98973422  0.37666981  0.98491836    -0.84500
C1601       C  0.96567612  0.37102931  0.95924160     1.10600
O1602       O  0.92396587  0.20614367  0.58311979    -0.97600
Zr1603     Zr  0.95995934  0.25963067  0.56377650     1.88900
O1604       O  0.97935231  0.36239053  0.57723831    -0.74300
O1605       O  0.89927014  0.27272932  0.96890839    -0.53500
O1606       O  0.89051696  0.26355854  0.55060807    -0.98200
O1607       O  0.96595009  0.24655685  0.62705137    -0.55400
O1608       O  0.93934852  0.31557886  0.59123519    -0.74800
C1609       C  0.95049627  0.34860209  0.59424285     0.97600
O1610       O  0.53684480  0.40331205  0.02820473    -0.63600
O1611       O  0.64427487  0.25749990  0.56720304    -0.58400
O1612       O  0.58527142  0.35145934  0.55765629    -0.95100
O1613       O  0.59092203  0.30829410  0.59938001    -0.93500
O1614       O  0.65311426  0.27114885  0.97843775    -0.93900
O1615       O  0.62016184  0.32940747  0.94770991    -0.92600
C1616       C  0.60292680  0.33697053  0.58427346     1.16400
H1617       H  0.60334956  0.21380881  0.50724009     0.32400
H1618       H  0.53027117  0.33172696  0.95302426     0.43200
H1619       H  0.51739668  0.30358413  0.59843910     0.36700
H1620       H  0.94046286  0.21907469  0.50415196     0.33200
H1621       H  0.60427159  0.28284685  0.89137398     0.25000
H1622       H  0.89060656  0.29706954  0.97676802     0.30900
H1623       H  0.87838133  0.27284339  0.57272754     0.36900
H1624       H  0.66563920  0.26409788  0.95572550     0.31300
H1625       H  0.65171816  0.24869008  0.59108833     0.30200
H1626       H  0.59551592  0.24167472  0.63840199     0.31900
H1627       H  0.97623003  0.26900677  0.63805891     0.30800
H1628       H  0.60829351  0.34922971  0.96183981     0.34800
H1629       H  0.54304493  0.41022390  0.05302562     0.27600
H1630       H  0.00467280  0.12123737  0.48174759     0.31800
H1631       H  0.90509106  0.21471739  0.60122079     0.34700
H1632       H  0.65277909  0.23803444  0.55076961     0.27300
H1633       H  0.56194199  0.40501911  0.01530413     0.40100
H1634       H  0.98473018  0.29814740  0.89021359     0.30200
H1635       H  0.56026314  0.27164598  0.89192474     0.37800
H1636       H  0.98766903  0.22897928  0.62865838     0.29700
H1637       H  0.88923083  0.27039839  0.94432774     0.29700
H1638       H  0.97810781  0.13220557  0.51411731     0.30000
C1639       C  0.85084868  0.19557645  0.89412629     0.79200
N1640       N  0.88929786  0.20165501  0.90034414    -0.79100
C1641       C  0.90821232  0.18348461  0.92652338     0.81600
N1642       N  0.88851223  0.15872932  0.94610963    -0.79100
C1643       C  0.85001179  0.15272213  0.94025185     0.81700
N1644       N  0.83118031  0.17104038  0.91412438    -0.80800
Zr1645     Zr  0.77238214  0.08874533  0.52541662     2.17500
O1646       O  0.75532800  0.15223319  0.01673185    -0.52400
O1647       O  0.81362066  0.10996973  0.57498182    -0.75600
O1648       O  0.71432484  0.10599859  0.55934101    -0.82400
O1649       O  0.84160705  0.09086982  0.94522693    -0.84100
O1650       O  0.70987280  0.05914100  0.59686198    -0.79700
O1651       O  0.80734921  0.12725294  0.98302077    -0.91400
O1652       O  0.85360761  0.06301937  0.58860482    -0.77300
O1653       O  0.77619999  0.04258976  0.56964132    -0.86800
O1654       O  0.83054931  0.05509685  0.51420832    -0.86500
O1655       O  0.71454367  0.05191700  0.51594011    -0.73300
O1656       O  0.76551356  0.06351610  0.96641665    -0.85400
Zr1657     Zr  0.77161952  0.44543202  0.49261768     2.26400
Zr1658     Zr  0.71953981  0.00596532  0.56043486     2.06300
Zr1659     Zr  0.82331467  0.02919052  0.95618163     2.10000
Zr1660     Zr  0.83377509  0.00893193  0.55789181     1.78800
O1661       O  0.81825898  0.04477703  0.89346067    -0.94200
O1662       O  0.82861016  0.99477749  0.62098751    -0.42000
O1663       O  0.82859209  0.48262094  0.50013799    -0.78600
O1664       O  0.77772715  0.47104621  0.55158051    -0.97300
O1665       O  0.71298468  0.47886011  0.50292056    -0.90600
O1666       O  0.76770552  0.49103506  0.94768363    -0.93500
C1667       C  0.84177562  0.09565191  0.59268802     1.00300
C1668       C  0.83144242  0.12184609  0.95731952     1.13200
C1669       C  0.69703248  0.08893632  0.58448107     1.04000
O1670       O  0.70783907  0.49104926  0.62253288    -0.95600
O1671       O  0.70441269  0.44422453  0.57433156    -0.91400
O1672       O  0.73936335  0.40752263  0.53735588    -0.84500
C1673       C  0.71557693  0.41316969  0.56324332     1.10600
O1674       O  0.67402230  0.07812400  0.93964355    -0.97600
Zr1675     Zr  0.71011841  0.02459228  0.95864491     1.88900
O1676       O  0.72949012  0.42185587  0.94512849    -0.74300
O1677       O  0.64918999  0.01127279  0.55324806    -0.53500
O1678       O  0.64058137  0.02074614  0.97133951    -0.98200
O1679       O  0.71662838  0.03787757  0.89545472    -0.55400
O1680       O  0.68945440  0.46866360  0.93120210    -0.74800
C1681       C  0.70059732  0.43564404  0.92817392     0.97600
O1682       O  0.78693156  0.38090783  0.49453247    -0.63600
O1683       O  0.89437395  0.02711449  0.95501899    -0.58400
O1684       O  0.83531498  0.43272993  0.96487892    -0.95100
O1685       O  0.84115449  0.47604933  0.92331253    -0.93500
O1686       O  0.90287714  0.01317461  0.54368989    -0.93900
O1687       O  0.87018110  0.45519494  0.57538694    -0.92600
C1688       C  0.85306680  0.44730892  0.93835876     1.16400
H1689       H  0.85325724  0.07058095  0.51542447     0.32400
H1690       H  0.78022316  0.45246963  0.56943225     0.43200
H1691       H  0.76763350  0.48063616  0.92408684     0.36700
H1692       H  0.69037617  0.06505229  0.51824785     0.33200
H1693       H  0.85435006  0.00119853  0.63114148     0.25000
H1694       H  0.64065068  0.48692897  0.54528110     0.30900
H1695       H  0.62857679  0.01171902  0.94905826     0.36900
H1696       H  0.91569628  0.01928995  0.56652392     0.31300
H1697       H  0.90164274  0.03680111  0.93141952     0.30200
H1698       H  0.84522085  0.04300471  0.88422339     0.31900
H1699       H  0.72749085  0.01563849  0.88450658     0.30800
H1700       H  0.86101342  0.43593579  0.55900635     0.34800
H1701       H  0.79272987  0.37383719  0.46967363     0.27600
H1702       H  0.75431755  0.16302619  0.04085079     0.31800
H1703       H  0.65565133  0.06974327  0.92103131     0.34700
H1704       H  0.90288988  0.04602041  0.97206659     0.27300
H1705       H  0.81223489  0.37928980  0.50710581     0.40100
H1706       H  0.73410446  0.98647708  0.63246384     0.30200
H1707       H  0.81061672  0.01328461  0.63075730     0.37800
H1708       H  0.73799820  0.05584592  0.89409607     0.29700
H1709       H  0.63901192  0.01350419  0.57778936     0.29700
H1710       H  0.72797778  0.15211025  0.00830462     0.30000
C1711       C  0.60088163  0.08867584  0.62837562     0.79200
N1712       N  0.63930825  0.08257532  0.62209012    -0.79100
C1713       C  0.65817828  0.10078398  0.59591441     0.81600
N1714       N  0.63847917  0.12560779  0.57642119    -0.79100
C1715       C  0.60000925  0.13164101  0.58236119     0.81700
N1716       N  0.58120396  0.11327676  0.60846745    -0.80800
C1717       C  0.67871697  0.41424406  0.90165366     0.79200
N1718       N  0.64846302  0.43132860  0.88558432    -0.79100
C1719       C  0.63096045  0.41694649  0.85676154     0.81600
N1720       N  0.64381102  0.38493371  0.84372301    -0.79100
C1721       C  0.67348684  0.36676188  0.85951217     0.81700
N1722       N  0.69175592  0.38186887  0.88834403    -0.80800
Zr1723     Zr  0.50465809  0.02036358  0.69108829     2.17500
O1724       O  0.51596799  0.50527056  0.62866959    -0.52400
O1725       O  0.95325834  0.06321019  0.67368287    -0.75600
O1726       O  0.96438744  0.46995165  0.66858207    -0.82400
O1727       O  0.60023953  0.07374148  0.68857015    -0.84100
O1728       O  0.93499396  0.44601089  0.71731528    -0.79700
O1729       O  0.54869855  0.05640048  0.65439623    -0.91400
O1730       O  0.94235863  0.10159333  0.72000005    -0.77300
O1731       O  0.95634918  0.02486661  0.73653791    -0.86800
O1732       O  0.52098040  0.07231913  0.72594206    -0.86500
O1733       O  0.51213157  0.46569660  0.72545082    -0.73300
O1734       O  0.56928538  0.00982234  0.71437528    -0.85400
Zr1735     Zr  0.54252614  0.01296930  0.83062831     2.26400
Zr1736     Zr  0.96368218  0.47095091  0.77103276     2.06300
Zr1737     Zr  0.58445689  0.06155444  0.75002902     2.10000
Zr1738     Zr  0.97336276  0.07632759  0.77169247     1.78800
O1739       O  0.65403519  0.04889038  0.74701454    -0.94200
O1740       O  0.90435394  0.07314841  0.78636064    -0.42000
O1741       O  0.53659412  0.06658647  0.79556176    -0.78600
O1742       O  0.97775928  0.02287271  0.80748462    -0.97300
O1743       O  0.52683557  0.46084574  0.79591057    -0.90600
O1744       O  0.59153215  0.00850524  0.78556057    -0.93500
C1745       C  0.93703269  0.09122522  0.68788462     1.00300
C1746       C  0.58203320  0.07161650  0.65891748     1.13200
C1747       C  0.94148506  0.44710213  0.68370729     1.04000
O1748       O  0.89413706  0.48129955  0.77912175    -0.95600
O1749       O  0.94938617  0.45402730  0.83165872    -0.91400
O1750       O  0.99804581  0.47636830  0.86659883    -0.84500
C1751       C  0.96652775  0.45823376  0.86166110     1.10600
O1752       O  0.59581783  0.42866786  0.69502811    -0.97600
Zr1753     Zr  0.57485844  0.45672172  0.75064822     1.88900
O1754       O  0.59225369  0.46936944  0.84837228    -0.74300
O1755       O  0.95808217  0.40534343  0.77655026    -0.53500
O1756       O  0.55345031  0.39380542  0.74670824    -0.98200
O1757       O  0.64547778  0.45583670  0.74340538    -0.55400
O1758       O  0.59742320  0.42780105  0.80399344    -0.74800
C1759       C  0.60457343  0.43919421  0.83543491     0.97600
O1760       O  0.04282966  0.03106320  0.89312538    -0.63600
O1761       O  0.59642876  0.12612970  0.74268057    -0.58400
O1762       O  0.57602065  0.06808346  0.85231320    -0.95100
O1763       O  0.60553975  0.09211907  0.80369553    -0.93500
O1764       O  0.99199287  0.14003032  0.77160632    -0.93900
O1765       O  0.95933418  0.10885054  0.82668585    -0.92600
C1766       C  0.59791862  0.09183919  0.83711509     1.16400
H1767       H  0.52088699  0.09404188  0.71162278     0.32400
H1768       H  0.95914635  0.02495538  0.82663865     0.43200
H1769       H  0.61745031  0.00707281  0.79559944     0.36700
H1770       H  0.50850616  0.44410065  0.71130467     0.33200
H1771       H  0.89391131  0.09705560  0.77935691     0.25000
H1772       H  0.92994016  0.40019150  0.77359739     0.30900
H1773       H  0.57641018  0.37921816  0.75371226     0.36900
H1774       H  0.96746528  0.15338544  0.76706390     0.31300
H1775       H  0.62170163  0.12741385  0.73005918     0.30200
H1776       H  0.66658429  0.07072428  0.75724964     0.31900
H1777       H  0.65641623  0.46100857  0.76723802     0.30800
H1778       H  0.97418870  0.09566114  0.84513509     0.34800
H1779       H  0.01528445  0.03603535  0.89932281     0.27600
H1780       H  0.49023579  0.50663955  0.61681095     0.31800
H1781       H  0.61262394  0.40798945  0.70180666     0.34700
H1782       H  0.57695652  0.13441992  0.72507691     0.27300
H1783       H  0.04978696  0.00897210  0.90659111     0.40100
H1784       H  0.88414215  0.48703530  0.75509883     0.30200
H1785       H  0.89317506  0.05615026  0.76869048     0.37800
H1786       H  0.65145243  0.47766683  0.72920650     0.29700
H1787       H  0.97045645  0.39529342  0.75487398     0.29700
H1788       H  0.52319561  0.47928158  0.62816276     0.30000
C1789       C  0.86205744  0.11594728  0.62117902     0.79200
N1790       N  0.89233622  0.09877511  0.63743350    -0.79100
C1791       C  0.90887993  0.11260338  0.66707696     0.81600
N1792       N  0.89486207  0.14395970  0.68070769    -0.79100
C1793       C  0.86504059  0.16204416  0.66497089     0.81700
N1794       N  0.84796860  0.14768519  0.63518700    -0.80800
C1795       C  0.61220735  0.16836723  0.90133008     0.79200
N1796       N  0.59810102  0.13664377  0.88728797    -0.79100
C1797       C  0.61517259  0.12228676  0.85749944     0.81600
N1798       N  0.64502627  0.14036068  0.84180208    -0.79100
C1799       C  0.65905094  0.17170425  0.85546873     0.81700
N1800       N  0.64250197  0.18552897  0.88510479    -0.80800
C1801       C  0.69768057  0.34248554  0.62998490     0.79200
N1802       N  0.71702834  0.36660759  0.60922527    -0.79100
C1803       C  0.69829839  0.38253316  0.58149934     0.81600
N1804       N  0.66042312  0.37460873  0.57480353    -0.79100
C1805       C  0.64117900  0.35042989  0.59526443     0.81700
N1806       N  0.65985933  0.33458079  0.62296793    -0.80800
Zr1807     Zr  0.75469876  0.26395679  0.83143535     2.17500
O1808       O  0.76625848  0.27937981  0.89373190    -0.52400
O1809       O  0.70325458  0.22120800  0.84885781    -0.75600
O1810       O  0.71424760  0.31423102  0.85397043    -0.82400
O1811       O  0.85032016  0.21088330  0.83401047    -0.84100
O1812       O  0.68498348  0.33825941  0.80522060    -0.79700
O1813       O  0.79845855  0.22757909  0.86807881    -0.91400
O1814       O  0.69264511  0.18265463  0.80262609    -0.77300
O1815       O  0.70639998  0.25939213  0.78601711    -0.86800
O1816       O  0.77111764  0.21197697  0.79662160    -0.86500
O1817       O  0.76209083  0.31865764  0.79708325    -0.73300
O1818       O  0.81928685  0.27451700  0.80808908    -0.85400
Zr1819     Zr  0.79250247  0.27134538  0.69189477     2.26400
Zr1820     Zr  0.71363520  0.31329885  0.75151584     2.06300
Zr1821     Zr  0.83455749  0.22279921  0.77247912     2.10000
Zr1822     Zr  0.72349666  0.20794692  0.75089559     1.78800
O1823       O  0.90413200  0.23557746  0.77509630    -0.94200
O1824       O  0.65445088  0.21134514  0.73651326    -0.42000
O1825       O  0.78668003  0.21769864  0.72695016    -0.78600
O1826       O  0.72777676  0.26138716  0.71506887    -0.97300
O1827       O  0.77677449  0.32347483  0.72661886    -0.90600
O1828       O  0.84151904  0.27586963  0.73695634    -0.93500
C1829       C  0.68718585  0.19309999  0.83469235     1.00300
C1830       C  0.83195280  0.21265657  0.86360346     1.13200
C1831       C  0.69139100  0.33711175  0.83883309     1.04000
O1832       O  0.64422810  0.30203087  0.74364644    -0.95600
O1833       O  0.69955618  0.33054964  0.69094350    -0.91400
O1834       O  0.74780761  0.30766093  0.65587543    -0.84500
C1835       C  0.71648460  0.32606353  0.66088188     1.10600
O1836       O  0.84604778  0.35496322  0.82775746    -0.97600
Zr1837     Zr  0.82481862  0.32763756  0.77187274     1.88900
O1838       O  0.84218882  0.31496989  0.67412943    -0.74300
O1839       O  0.70698214  0.37882517  0.74593722    -0.53500
O1840       O  0.80374575  0.39063742  0.77616953    -0.98200
O1841       O  0.89543622  0.32853211  0.77901232    -0.55400
O1842       O  0.84735042  0.35656089  0.71849516    -0.74800
C1843       C  0.85452200  0.34514186  0.68706094     0.97600
O1844       O  0.79296318  0.25321094  0.62940781    -0.63600
O1845       O  0.84705690  0.15835468  0.78037241    -0.58400
O1846       O  0.82599434  0.21629825  0.67011165    -0.95100
O1847       O  0.85535894  0.19216680  0.71875817    -0.93500
O1848       O  0.74217571  0.14425497  0.75062153    -0.93900
O1849       O  0.70909871  0.17511881  0.69617436    -0.92600
C1850       C  0.84780992  0.19249695  0.68532713     1.16400
H1851       H  0.77105375  0.19024533  0.81093084     0.32400
H1852       H  0.70914378  0.25928322  0.69593183     0.43200
H1853       H  0.86742151  0.27733486  0.72688990     0.36700
H1854       H  0.75843164  0.34024058  0.81124339     0.33200
H1855       H  0.64426057  0.18702559  0.74236572     0.25000
H1856       H  0.67883664  0.38366393  0.74934278     0.30900
H1857       H  0.82675297  0.40514554  0.76913069     0.36900
H1858       H  0.71791099  0.13090529  0.75622097     0.31300
H1859       H  0.87233157  0.15728667  0.79302141     0.30200
H1860       H  0.91659104  0.21431707  0.76367226     0.31900
H1861       H  0.90633769  0.32317016  0.75520801     0.30800
H1862       H  0.72334519  0.18853734  0.67749061     0.34800
H1863       H  0.76549404  0.24776771  0.62330382     0.27600
H1864       H  0.74057506  0.27812025  0.90568972     0.31800
H1865       H  0.86238890  0.37602746  0.82117931     0.34700
H1866       H  0.82761927  0.15006039  0.79800733     0.27300
H1867       H  0.79944126  0.27539358  0.61588917     0.40100
H1868       H  0.63421190  0.29712719  0.76784217     0.30200
H1869       H  0.64316703  0.22732777  0.75501938     0.37800
H1870       H  0.90140471  0.30680250  0.79336280     0.29700
H1871       H  0.71967303  0.38909548  0.76736399     0.29700
H1872       H  0.77353164  0.30536086  0.89405534     0.30000
C1873       C  0.94776385  0.94179358  0.39257345     0.79200
N1874       N  0.90995896  0.94970702  0.39963859    -0.79100
C1875       C  0.89130037  0.93383972  0.42734343     0.81600
N1876       N  0.91054500  0.90962335  0.44775466    -0.79100
C1877       C  0.94840298  0.90167891  0.44100678     0.81700
N1878       N  0.96712248  0.91764041  0.41329225    -0.80800
C1879       C  0.92868500  0.87000964  0.12081360     0.79200
N1880       N  0.89841846  0.85295280  0.13689562    -0.79100
C1881       C  0.88095156  0.86734713  0.16573339     0.81600
N1882       N  0.89386191  0.89933052  0.17878377    -0.79100
C1883       C  0.92357234  0.91746067  0.16301186     0.81700
N1884       N  0.94179858  0.90235390  0.13415291    -0.80800
Zr1885     Zr  0.52251087  0.69555521  0.99707391     2.17500
O1886       O  0.00551474  0.63208155  0.00584913    -0.52400
O1887       O  0.56381829  0.67431657  0.44756269    -0.75600
O1888       O  0.96450513  0.67828847  0.46297965    -0.82400
O1889       O  0.59149982  0.69348904  0.07755678    -0.82900
O1890       O  0.95987978  0.72516598  0.42548882    -0.79700
O1891       O  0.55750270  0.65713882  0.03952588    -0.91400
O1892       O  0.60369524  0.72133074  0.43387503    -0.77300
O1893       O  0.52636924  0.74170142  0.45286338    -0.86800
O1894       O  0.58062162  0.72926722  0.00841858    -0.86500
O1895       O  0.96459444  0.73226203  0.00650209    -0.73300
O1896       O  0.51544536  0.72078313  0.05606832    -0.85400
Zr1897     Zr  0.52160074  0.83877144  0.02987593     2.26400
Zr1898     Zr  0.96963410  0.77823523  0.46201930     2.06300
Zr1899     Zr  0.57322626  0.75512306  0.06645568     2.10000
Zr1900     Zr  0.58390311  0.77539835  0.46469022     1.78800
O1901       O  0.56859529  0.73936320  0.12917360    -0.94200
O1902       O  0.57873800  0.78976869  0.40164207    -0.42000
O1903       O  0.57861443  0.80163922  0.02247732    -0.78600
O1904       O  0.52778228  0.81318161  0.47090738    -0.97300
O1905       O  0.96296030  0.80535970  0.01951093    -0.90600
O1906       O  0.51753613  0.79319114  0.07483965    -0.93500
C1907       C  0.59192296  0.68866910  0.42982055     1.00300
C1908       C  0.58144389  0.66252989  0.06534794     1.13200
C1909       C  0.94712139  0.69534160  0.43787081     1.04000
O1910       O  0.95840782  0.79333458  0.39990493    -0.95600
O1911       O  0.95422512  0.83997945  0.44837528    -0.91400
O1912       O  0.98973404  0.87666965  0.48491822    -0.84500
C1913       C  0.96567589  0.87102910  0.45924149     1.10600
O1914       O  0.92396612  0.70614344  0.08311930    -0.97600
Zr1915     Zr  0.95995934  0.75963069  0.06377642     1.88900
O1916       O  0.97935243  0.86239042  0.07723844    -0.74300
O1917       O  0.89927013  0.77272908  0.46890918    -0.53500
O1918       O  0.89051694  0.76355913  0.05060834    -0.98200
O1919       O  0.96595011  0.74655668  0.12705129    -0.55400
O1920       O  0.93934854  0.81557880  0.09123522    -0.74800
C1921       C  0.95049639  0.84860199  0.09424296     0.97600
O1922       O  0.53684491  0.90331203  0.52820464    -0.63600
O1923       O  0.64427482  0.75749997  0.06720261    -0.58400
O1924       O  0.58527161  0.85145922  0.05765612    -0.95100
O1925       O  0.59092197  0.80829413  0.09937999    -0.93500
O1926       O  0.65311427  0.77114915  0.47843769    -0.93900
O1927       O  0.62016185  0.82940742  0.44770998    -0.92600
C1928       C  0.60292688  0.83697049  0.08427338     1.16400
H1929       H  0.60334946  0.71380889  0.00724008     0.32400
H1930       H  0.53027110  0.83172703  0.45302421     0.43200
H1931       H  0.51739669  0.80358397  0.09843913     0.36700
H1932       H  0.94046267  0.71907496  0.00415181     0.33200
H1933       H  0.60427147  0.78284705  0.39137408     0.25000
H1934       H  0.89060656  0.79706947  0.47676843     0.30900
H1935       H  0.87838144  0.77284325  0.07272819     0.36900
H1936       H  0.66563910  0.76409749  0.45572562     0.31300
H1937       H  0.65171828  0.74869019  0.09108787     0.30200
H1938       H  0.59551615  0.74167502  0.13840198     0.31900
H1939       H  0.97623072  0.76900635  0.13805885     0.30800
H1940       H  0.60829458  0.84922939  0.46184095     0.34800
H1941       H  0.54304515  0.91022386  0.55302554     0.27600
H1942       H  0.00467282  0.62123730  0.98174730     0.31800
H1943       H  0.90509129  0.71471700  0.10122037     0.34700
H1944       H  0.65277903  0.73803454  0.05076915     0.27300
H1945       H  0.56194205  0.90501896  0.51530398     0.40100
H1946       H  0.98472962  0.79814591  0.39021334     0.30200
H1947       H  0.56026311  0.77164620  0.39192483     0.37800
H1948       H  0.98766853  0.72897857  0.12865823     0.29700
H1949       H  0.88923057  0.77039763  0.44432870     0.29700
H1950       H  0.97810770  0.63220534  0.01411705     0.30000
C1951       C  0.85084875  0.69557636  0.39412616     0.79200
N1952       N  0.88929795  0.70165486  0.40034398    -0.79100
C1953       C  0.90821239  0.68348447  0.42652321     0.81600
N1954       N  0.88851229  0.65872919  0.44610944    -0.79100
C1955       C  0.85001184  0.65272204  0.44025169     0.81700
N1956       N  0.83118036  0.67104031  0.41412424    -0.80800
Zr1957     Zr  0.77238209  0.58874542  0.02541670     2.17500
O1958       O  0.75532829  0.65223316  0.51673201    -0.52400
O1959       O  0.81362067  0.60996992  0.07498191    -0.75600
O1960       O  0.71432483  0.60599868  0.05934108    -0.82400
O1961       O  0.84160726  0.59086973  0.44522676    -0.84100
O1962       O  0.70987278  0.55914104  0.09686202    -0.79700
O1963       O  0.80734922  0.62725279  0.48302052    -0.91400
O1964       O  0.85360770  0.56301960  0.08860487    -0.77300
O1965       O  0.77619992  0.54258983  0.06964141    -0.86800
O1966       O  0.83054929  0.55509695  0.01420850    -0.86500
O1967       O  0.71454367  0.55191693  0.01594027    -0.73300
O1968       O  0.76551346  0.56351605  0.46641648    -0.85400
Zr1969     Zr  0.77161962  0.94543210  0.99261785     2.26400
Zr1970     Zr  0.71953983  0.50596528  0.06043498     2.06300
Zr1971     Zr  0.82331457  0.52919051  0.45618141     2.10000
Zr1972     Zr  0.83377512  0.50893208  0.05789206     1.78800
O1973       O  0.81825881  0.54477714  0.39346051    -0.94200
O1974       O  0.82861003  0.49477790  0.12098783    -0.42000
O1975       O  0.82859216  0.98262101  0.00013827    -0.78600
O1976       O  0.77772719  0.97104635  0.05158064    -0.97300
O1977       O  0.71298465  0.97886011  0.00292065    -0.90600
O1978       O  0.76770543  0.99103500  0.44768342    -0.93500
C1979       C  0.84177569  0.59565213  0.09268808     1.00300
C1980       C  0.83144251  0.62184599  0.45731932     1.13200
C1981       C  0.69703249  0.58893639  0.08448113     1.04000
O1982       O  0.70783904  0.99104960  0.12253299    -0.95600
O1983       O  0.70441274  0.94422445  0.07433154    -0.91400
O1984       O  0.73936374  0.90752264  0.03735605    -0.84500
C1985       C  0.71557714  0.91316962  0.06324334     1.10600
O1986       O  0.67402226  0.57812366  0.43964311    -0.97600
Zr1987     Zr  0.71011840  0.52459216  0.45864480     1.88900
O1988       O  0.72948988  0.92185582  0.44512849    -0.74300
O1989       O  0.64919001  0.51127269  0.05324791    -0.53500
O1990       O  0.64058151  0.52074618  0.47134003    -0.98200
O1991       O  0.71662818  0.53787770  0.39545468    -0.55400
O1992       O  0.68945436  0.96866364  0.43120197    -0.74800
C1993       C  0.70059713  0.93564402  0.42817391     0.97600
O1994       O  0.78693167  0.88090794  0.99453266    -0.63600
O1995       O  0.89437384  0.52711435  0.45501856    -0.58400
O1996       O  0.83531487  0.93272985  0.46487874    -0.95100
O1997       O  0.84115443  0.97604922  0.42331234    -0.93500
O1998       O  0.90287728  0.51317470  0.04369032    -0.93900
O1999       O  0.87018056  0.95519488  0.07538751    -0.92600
C2000       C  0.85306670  0.94730880  0.43835857     1.16400
H2001       H  0.85325720  0.57058107  0.01542460     0.32400
H2002       H  0.78022313  0.95246979  0.06943237     0.43200
H2003       H  0.76763339  0.98063606  0.42408664     0.36700
H2004       H  0.69037617  0.56505209  0.01824811     0.33200
H2005       H  0.85435012  0.50119849  0.13114174     0.25000
H2006       H  0.64065083  0.98692890  0.04528054     0.30900
H2007       H  0.62857679  0.51171809  0.44905924     0.36900
H2008       H  0.91569642  0.51929001  0.06652434     0.31300
H2009       H  0.90164255  0.53680031  0.43141878     0.30200
H2010       H  0.84522048  0.54300345  0.38422294     0.31900
H2011       H  0.72748950  0.51563821  0.38450630     0.30800
H2012       H  0.86101292  0.93593587  0.05900678     0.34800
H2013       H  0.79272982  0.87383727  0.96967379     0.27600
H2014       H  0.75431767  0.66302594  0.54085104     0.31800
H2015       H  0.65565041  0.56974252  0.42103175     0.34700
H2016       H  0.90288994  0.54602066  0.47206564     0.27300
H2017       H  0.81223505  0.87928993  0.00710592     0.40100
H2018       H  0.73410440  0.48647723  0.13246400     0.30200
H2019       H  0.81061706  0.51328538  0.13075763     0.37800
H2020       H  0.73799875  0.55584523  0.39409600     0.29700
H2021       H  0.63901177  0.51350375  0.07778913     0.29700
H2022       H  0.72797816  0.65211032  0.50830457     0.30000
C2023       C  0.60088165  0.58867588  0.12837563     0.79200
N2024       N  0.63930828  0.58257540  0.12209016    -0.79100
C2025       C  0.65817830  0.60078408  0.09591447     0.81600
N2026       N  0.63847919  0.62560787  0.07642122    -0.79100
C2027       C  0.60000924  0.63164100  0.08236115     0.81700
N2028       N  0.58120396  0.61327674  0.10846741    -0.80800
C2029       C  0.67871670  0.91424400  0.40165373     0.79200
N2030       N  0.64846274  0.93132853  0.38558441    -0.79100
C2031       C  0.63096027  0.91694649  0.35676155     0.81600
N2032       N  0.64381097  0.88493378  0.34372291    -0.79100
C2033       C  0.67348677  0.86676194  0.35951207     0.81700
N2034       N  0.69175574  0.88186887  0.38834402    -0.80800
Zr2035     Zr  0.50465821  0.52036359  0.19108831     2.17500
O2036       O  0.51596812  0.00527086  0.12866947    -0.52400
O2037       O  0.95325860  0.56321039  0.17368286    -0.75600
O2038       O  0.96438760  0.96995175  0.16858193    -0.82400
O2039       O  0.60023947  0.57374162  0.18857019    -0.84100
O2040       O  0.93499397  0.94601113  0.21731512    -0.79700
O2041       O  0.54869870  0.55640029  0.15439616    -0.91400
O2042       O  0.94235851  0.60159327  0.22000019    -0.77300
O2043       O  0.95634932  0.52486672  0.23653792    -0.86800
O2044       O  0.52098055  0.57231911  0.22594214    -0.86500
O2045       O  0.51213165  0.96569662  0.22545067    -0.73300
O2046       O  0.56928553  0.50982231  0.21437525    -0.85400
Zr2047     Zr  0.54252599  0.51296932  0.33062840     2.26400
Zr2048     Zr  0.96368218  0.97095100  0.27103267     2.06300
Zr2049     Zr  0.58445701  0.56155432  0.25002910     2.10000
Zr2050     Zr  0.97336276  0.57632766  0.27169257     1.78800
O2051       O  0.65403527  0.54889017  0.24701435    -0.94200
O2052       O  0.90435394  0.57314767  0.28636069    -0.42000
O2053       O  0.53659415  0.56658648  0.29556179    -0.78600
O2054       O  0.97775927  0.52287275  0.30748463    -0.97300
O2055       O  0.52683555  0.96084572  0.29591056    -0.90600
O2056       O  0.59153213  0.50850518  0.28556079    -0.93500
C2057       C  0.93703281  0.59122531  0.18788469     1.00300
C2058       C  0.58203323  0.57161651  0.15891747     1.13200
C2059       C  0.94148513  0.94710230  0.18370714     1.04000
O2060       O  0.89413707  0.98129992  0.27912173    -0.95600
O2061       O  0.94938636  0.95402707  0.33165857    -0.91400
O2062       O  0.99804570  0.97636833  0.36659888    -0.84500
C2063       C  0.96652776  0.95823365  0.36166102     1.10600
O2064       O  0.59581809  0.92866821  0.19502804    -0.97600
Zr2065     Zr  0.57485846  0.95672181  0.25064821     1.88900
O2066       O  0.59225348  0.96936941  0.34837240    -0.74300
O2067       O  0.95808184  0.90534351  0.27654967    -0.53500
O2068       O  0.55345038  0.89380546  0.24670833    -0.98200
O2069       O  0.64547780  0.95583675  0.24340547    -0.55400
O2070       O  0.59742312  0.92780115  0.30399344    -0.74800
C2071       C  0.60457326  0.93919423  0.33543496     0.97600
O2072       O  0.04282911  0.53106375  0.39312529    -0.63600
O2073       O  0.59642902  0.62612957  0.24268089    -0.58400
O2074       O  0.57602064  0.56808337  0.35231328    -0.95100
O2075       O  0.60553993  0.59211886  0.30369566    -0.93500
O2076       O  0.99199273  0.64003045  0.27160612    -0.93900
O2077       O  0.95933441  0.60885092  0.32668585    -0.92600
C2078       C  0.59791867  0.59183907  0.33711519     1.16400
H2079       H  0.52088727  0.59404186  0.21162285     0.32400
H2080       H  0.95914626  0.52495540  0.32663874     0.43200
H2081       H  0.61745026  0.50707269  0.29559977     0.36700
H2082       H  0.50850627  0.94410079  0.21130455     0.33200
H2083       H  0.89391143  0.59705551  0.27935882     0.25000
H2084       H  0.92993986  0.90019171  0.27359662     0.30900
H2085       H  0.57641034  0.87921820  0.25371205     0.36900
H2086       H  0.96746513  0.65338553  0.26706374     0.31300
H2087       H  0.62170158  0.62741380  0.23005896     0.30200
H2088       H  0.66658434  0.57072357  0.25725051     0.31900
H2089       H  0.65641624  0.96100882  0.26723804     0.30800
H2090       H  0.97418904  0.59566164  0.34513511     0.34800
H2091       H  0.01528375  0.53603559  0.39932259     0.27600
H2092       H  0.49023590  0.00664000  0.11681084     0.31800
H2093       H  0.61262389  0.90798956  0.20180651     0.34700
H2094       H  0.57695632  0.63441999  0.22507774     0.27300
H2095       H  0.04978672  0.50897289  0.40659119     0.40100
H2096       H  0.88414212  0.98703563  0.25509883     0.30200
H2097       H  0.89317487  0.55615100  0.26868929     0.37800
H2098       H  0.65145245  0.97766679  0.22920640     0.29700
H2099       H  0.97045616  0.89529364  0.25487333     0.29700
H2100       H  0.52319569  0.97928188  0.12816252     0.30000
C2101       C  0.86205758  0.61594747  0.12117909     0.79200
N2102       N  0.89233636  0.59877526  0.13743354    -0.79100
C2103       C  0.90888011  0.61260350  0.16707701     0.81600
N2104       N  0.89486226  0.64395978  0.18070780    -0.79100
C2105       C  0.86504075  0.66204425  0.16497106     0.81700
N2106       N  0.84796874  0.64768533  0.13518715    -0.80800
C2107       C  0.61220727  0.66836721  0.40133011     0.79200
N2108       N  0.59810099  0.63664372  0.38728804    -0.79100
C2109       C  0.61517254  0.62228673  0.35749949     0.81600
N2110       N  0.64502611  0.64036073  0.34180206    -0.79100
C2111       C  0.65905074  0.67170433  0.35546868     0.81700
N2112       N  0.64250180  0.68552901  0.38510476    -0.80800
C2113       C  0.69768063  0.84248537  0.12998475     0.79200
N2114       N  0.71702849  0.86660735  0.10922511    -0.79100
C2115       C  0.69829859  0.88253297  0.08149918     0.81600
N2116       N  0.66042332  0.87460857  0.07480331    -0.79100
C2117       C  0.64117912  0.85042980  0.09526426     0.81700
N2118       N  0.65985937  0.83458074  0.12296781    -0.80800
Zr2119     Zr  0.75469872  0.76395669  0.33143543     2.17500
O2120       O  0.76625818  0.77937978  0.39373206    -0.52400
O2121       O  0.70325463  0.72120788  0.34885793    -0.75600
O2122       O  0.71424750  0.81423100  0.35397029    -0.82400
O2123       O  0.85032019  0.71088334  0.33401042    -0.84100
O2124       O  0.68498347  0.83825952  0.30522047    -0.79700
O2125       O  0.79845868  0.72757917  0.36807887    -0.91400
O2126       O  0.69264477  0.68265487  0.30262599    -0.77300
O2127       O  0.70639998  0.75939216  0.28601711    -0.86800
O2128       O  0.77111758  0.71197683  0.29662165    -0.86500
O2129       O  0.76209086  0.81865753  0.29708332    -0.73300
O2130       O  0.81928682  0.77451683  0.30808918    -0.85400
Zr2131     Zr  0.79250251  0.77134537  0.19189476     2.26400
Zr2132     Zr  0.71363526  0.81329889  0.25151580     2.06300
Zr2133     Zr  0.83455740  0.72279912  0.27247913     2.10000
Zr2134     Zr  0.72349668  0.70794691  0.25089556     1.78800
O2135       O  0.90413201  0.73557697  0.27509661    -0.94200
O2136       O  0.65445101  0.71134505  0.23651301    -0.42000
O2137       O  0.78668005  0.71769853  0.22695005    -0.78600
O2138       O  0.72777682  0.76138719  0.21506884    -0.97300
O2139       O  0.77677463  0.82347480  0.22661895    -0.90600
O2140       O  0.84151900  0.77586959  0.23695640    -0.93500
C2141       C  0.68718568  0.69310006  0.33469232     1.00300
C2142       C  0.83195288  0.71265660  0.36360343     1.13200
C2143       C  0.69139097  0.83711181  0.33883296     1.04000
O2144       O  0.64422806  0.80203149  0.24364622    -0.95600
O2145       O  0.69955618  0.83054971  0.19094343    -0.91400
O2146       O  0.74780736  0.80766053  0.15587535    -0.84500
C2147       C  0.71648452  0.82606336  0.16088179     1.10600
O2148       O  0.84604800  0.85496276  0.32775781    -0.97600
Zr2149     Zr  0.82481871  0.82763746  0.27187293     1.88900
O2150       O  0.84218866  0.81497011  0.17412946    -0.74300
O2151       O  0.70698309  0.87882527  0.24593721    -0.53500
O2152       O  0.80374603  0.89063743  0.27616936    -0.98200
O2153       O  0.89543629  0.82853192  0.27901267    -0.55400
O2154       O  0.84735094  0.85656075  0.21849547    -0.74800
C2155       C  0.85452215  0.84514191  0.18706111     0.97600
O2156       O  0.79296369  0.75321122  0.12940767    -0.63600
O2157       O  0.84705597  0.65835442  0.28037235    -0.58400
O2158       O  0.82599440  0.71629819  0.17011186    -0.95100
O2159       O  0.85535927  0.69216689  0.21875832    -0.93500
O2160       O  0.74217503  0.64425471  0.25062137    -0.93900
O2161       O  0.70909863  0.67511887  0.19617432    -0.92600
C2162       C  0.84781011  0.69249699  0.18532732     1.16400
H2163       H  0.77105366  0.69024518  0.31093087     0.32400
H2164       H  0.70914391  0.75928325  0.19593173     0.43200
H2165       H  0.86742149  0.77733485  0.22689000     0.36700
H2166       H  0.75843170  0.84024035  0.31124343     0.33200
H2167       H  0.64426050  0.68702581  0.24236651     0.25000
H2168       H  0.67883758  0.88366431  0.24934251     0.30900
H2169       H  0.82675329  0.90514550  0.26913052     0.36900
H2170       H  0.71791022  0.63090516  0.25622076     0.31300
H2171       H  0.87233048  0.65728617  0.29302170     0.30200
H2172       H  0.91659098  0.71431667  0.26367237     0.31900
H2173       H  0.90633776  0.82316996  0.25520836     0.30800
H2174       H  0.72334558  0.68853708  0.17749063     0.34800
H2175       H  0.76549474  0.74776755  0.12330358     0.27600
H2176       H  0.74057472  0.77812047  0.40568981     0.31800
H2177       H  0.86238864  0.87602736  0.32117972     0.34700
H2178       H  0.82761796  0.65006025  0.29800693     0.27300
H2179       H  0.79944131  0.77539410  0.11588912     0.40100
H2180       H  0.63421157  0.79712857  0.26784201     0.30200
H2181       H  0.64316730  0.72732858  0.25501841     0.37800
H2182       H  0.90140470  0.80680228  0.29336312     0.29700
H2183       H  0.71967373  0.88909540  0.26736415     0.29700
H2184       H  0.77353149  0.80536080  0.39405552     0.30000
C2185       C  0.94776395  0.94179366  0.89257362     0.79200
N2186       N  0.90995908  0.94970711  0.89963884    -0.79100
C2187       C  0.89130058  0.93383984  0.92734374     0.81600
N2188       N  0.91054527  0.90962349  0.94775496    -0.79100
C2189       C  0.94840325  0.90167910  0.94100702     0.81700
N2190       N  0.96712265  0.91764056  0.91329240    -0.80800
C2191       C  0.92868474  0.87000972  0.62081353     0.79200
N2192       N  0.89841806  0.85295292  0.63689541    -0.79100
C2193       C  0.88095131  0.86734710  0.66573334     0.81600
N2194       N  0.89386183  0.89933035  0.67878392    -0.79100
C2195       C  0.92357225  0.91746054  0.66301206     0.81700
N2196       N  0.94179845  0.90235386  0.63415304    -0.80800
Zr2197     Zr  0.52251096  0.69555518  0.49707396     2.17500
O2198       O  0.00551504  0.63208159  0.50584913    -0.52400
O2199       O  0.56381818  0.67431664  0.94756260    -0.75600
O2200       O  0.96450513  0.67828848  0.96297962    -0.82400
O2201       O  0.59149975  0.69348903  0.57755698    -0.82900
O2202       O  0.95987973  0.72516599  0.92548875    -0.79700
O2203       O  0.55750307  0.65713883  0.53952573    -0.91400
O2204       O  0.60369546  0.72133068  0.93387532    -0.77300
O2205       O  0.52636915  0.74170152  0.95286334    -0.86800
O2206       O  0.58062177  0.72926714  0.50841863    -0.86500
O2207       O  0.96459440  0.73226195  0.50650223    -0.73300
O2208       O  0.51544538  0.72078318  0.55606834    -0.85400
Zr2209     Zr  0.52160072  0.83877147  0.52987589     2.26400
Zr2210     Zr  0.96963431  0.77823529  0.96201912     2.06300
Zr2211     Zr  0.57322630  0.75512307  0.56645571     2.10000
Zr2212     Zr  0.58390304  0.77539840  0.96469018     1.78800
O2213       O  0.56859491  0.73936347  0.62917366    -0.94200
O2214       O  0.57873795  0.78976834  0.90164192    -0.42000
O2215       O  0.57861437  0.80163920  0.52247732    -0.78600
O2216       O  0.52778222  0.81318166  0.97090738    -0.97300
O2217       O  0.96296005  0.80535976  0.51951106    -0.90600
O2218       O  0.51753616  0.79319118  0.57483963    -0.93500
C2219       C  0.59192300  0.68866912  0.92982064     1.00300
C2220       C  0.58144403  0.66252990  0.56534796     1.13200
C2221       C  0.94712138  0.69534160  0.93787077     1.04000
O2222       O  0.95840889  0.79333485  0.89990467    -0.95600
O2223       O  0.95422554  0.83997963  0.94837524    -0.91400
O2224       O  0.98973421  0.87666978  0.98491845    -0.84500
C2225       C  0.96567618  0.87102926  0.95924162     1.10600
O2226       O  0.92396572  0.70614375  0.58311979    -0.97600
Zr2227     Zr  0.95995923  0.75963070  0.56377649     1.88900
O2228       O  0.97935219  0.86239049  0.57723834    -0.74300
O2229       O  0.89927026  0.77272941  0.96890836    -0.53500
O2230       O  0.89051689  0.76355863  0.55060799    -0.98200
O2231       O  0.96594976  0.74655667  0.62705134    -0.55400
O2232       O  0.93934839  0.81557884  0.59123522    -0.74800
C2233       C  0.95049617  0.84860205  0.59424290     0.97600
O2234       O  0.53684496  0.90331199  0.02820473    -0.63600
O2235       O  0.64427487  0.75749982  0.56720308    -0.58400
O2236       O  0.58527158  0.85145927  0.55765611    -0.95100
O2237       O  0.59092208  0.80829413  0.59937994    -0.93500
O2238       O  0.65311414  0.77114898  0.97843775    -0.93900
O2239       O  0.62016174  0.82940747  0.94770992    -0.92600
C2240       C  0.60292686  0.83697057  0.58427339     1.16400
H2241       H  0.60334967  0.71380872  0.50724009     0.32400
H2242       H  0.53027101  0.83172716  0.95302417     0.43200
H2243       H  0.51739676  0.80358404  0.59843910     0.36700
H2244       H  0.94046272  0.71907489  0.50415198     0.33200
H2245       H  0.60427156  0.78284697  0.89137406     0.25000
H2246       H  0.89060678  0.79706971  0.97676791     0.30900
H2247       H  0.87838128  0.77284382  0.57272736     0.36900
H2248       H  0.66563907  0.76409800  0.95572550     0.31300
H2249       H  0.65171821  0.74868990  0.59108829     0.30200
H2250       H  0.59551577  0.74167508  0.63840206     0.31900
H2251       H  0.97622924  0.76900674  0.63805903     0.30800
H2252       H  0.60829312  0.84922976  0.96183951     0.34800
H2253       H  0.54304511  0.91022382  0.05302563     0.27600
H2254       H  0.00467310  0.62123739  0.48174729     0.31800
H2255       H  0.90509066  0.71471755  0.60122053     0.34700
H2256       H  0.65277916  0.73803444  0.55076957     0.27300
H2257       H  0.56194216  0.90501894  0.01530413     0.40100
H2258       H  0.98473067  0.79814757  0.89021371     0.30200
H2259       H  0.56026326  0.77164561  0.89192474     0.37800
H2260       H  0.98766896  0.72897942  0.62865840     0.29700
H2261       H  0.88923096  0.77039839  0.94432774     0.29700
H2262       H  0.97810798  0.63220532  0.51411697     0.30000
C2263       C  0.85084871  0.69557645  0.89412625     0.79200
N2264       N  0.88929793  0.70165488  0.90034402    -0.79100
C2265       C  0.90821237  0.68348448  0.92652325     0.81600
N2266       N  0.88851223  0.65872928  0.94610958    -0.79100
C2267       C  0.85001176  0.65272220  0.94025185     0.81700
N2268       N  0.83118031  0.67104046  0.91412438    -0.80800
Zr2269     Zr  0.77238215  0.58874530  0.52541668     2.17500
O2270       O  0.75532812  0.65223332  0.01673199    -0.52400
O2271       O  0.81362069  0.60996984  0.57498186    -0.75600
O2272       O  0.71432483  0.60599865  0.55934102    -0.82400
O2273       O  0.84160714  0.59086989  0.94522698    -0.84100
O2274       O  0.70987296  0.55914107  0.59686201    -0.79700
O2275       O  0.80734899  0.62725302  0.98302057    -0.91400
O2276       O  0.85360751  0.56301943  0.58860497    -0.77300
O2277       O  0.77619993  0.54258978  0.56964148    -0.86800
O2278       O  0.83054940  0.55509692  0.51420833    -0.86500
O2279       O  0.71454367  0.55191693  0.51594017    -0.73300
O2280       O  0.76551343  0.56351611  0.96641650    -0.85400
Zr2281     Zr  0.77161951  0.94543205  0.49261762     2.26400
Zr2282     Zr  0.71953980  0.50596532  0.56043492     2.06300
Zr2283     Zr  0.82331458  0.52919058  0.95618158     2.10000
Zr2284     Zr  0.83377510  0.50893201  0.55789182     1.78800
O2285       O  0.81825905  0.54477742  0.89346070    -0.94200
O2286       O  0.82861052  0.49477732  0.62098747    -0.42000
O2287       O  0.82859208  0.98262094  0.50013797    -0.78600
O2288       O  0.77772714  0.97104618  0.55158042    -0.97300
O2289       O  0.71298460  0.97886009  0.50292052    -0.90600
O2290       O  0.76770557  0.99103506  0.94768373    -0.93500
C2291       C  0.84177559  0.59565200  0.59268812     1.00300
C2292       C  0.83144237  0.62184617  0.95731946     1.13200
C2293       C  0.69703254  0.58893637  0.58448112     1.04000
O2294       O  0.70783924  0.99104964  0.62253291    -0.95600
O2295       O  0.70441291  0.94422451  0.57433172    -0.91400
O2296       O  0.73936344  0.90752266  0.53735588    -0.84500
C2297       C  0.71557708  0.91316968  0.56324339     1.10600
O2298       O  0.67402216  0.57812394  0.93964383    -0.97600
Zr2299     Zr  0.71011836  0.52459218  0.95864488     1.88900
O2300       O  0.72949017  0.92185601  0.94512843    -0.74300
O2301       O  0.64919003  0.51127296  0.55324793    -0.53500
O2302       O  0.64058135  0.52074594  0.97133949    -0.98200
O2303       O  0.71662804  0.53787774  0.89545474    -0.55400
O2304       O  0.68945425  0.96866367  0.93120228    -0.74800
C2305       C  0.70059726  0.93564413  0.92817399     0.97600
O2306       O  0.78693152  0.88090787  0.49453250    -0.63600
O2307       O  0.89437385  0.52711437  0.95501899    -0.58400
O2308       O  0.83531505  0.93272996  0.96487908    -0.95100
O2309       O  0.84115457  0.97604925  0.92331260    -0.93500
O2310       O  0.90287718  0.51317474  0.54368991    -0.93900
O2311       O  0.87018073  0.95519473  0.57538719    -0.92600
C2312       C  0.85306688  0.94730888  0.93835888     1.16400
H2313       H  0.85325743  0.57058109  0.51542448     0.32400
H2314       H  0.78022313  0.95246957  0.56943209     0.43200
H2315       H  0.76763359  0.98063610  0.92408711     0.36700
H2316       H  0.69037608  0.56505218  0.51824798     0.33200
H2317       H  0.85435036  0.50119869  0.63114140     0.25000
H2318       H  0.64065057  0.98692871  0.54528178     0.30900
H2319       H  0.62857685  0.51171863  0.94905829     0.36900
H2320       H  0.91569636  0.51929008  0.56652392     0.31300
H2321       H  0.90164268  0.53680095  0.93141951     0.30200
H2322       H  0.84522090  0.54300480  0.88422341     0.31900
H2323       H  0.72749005  0.51563850  0.88450642     0.30800
H2324       H  0.86101392  0.93593589  0.55900585     0.34800
H2325       H  0.79272955  0.87383716  0.46967359     0.27600
H2326       H  0.75431762  0.66302616  0.04085104     0.31800
H2327       H  0.65565096  0.56974321  0.92103177     0.34700
H2328       H  0.90288985  0.54602024  0.97206659     0.27300
H2329       H  0.81223493  0.87928981  0.50710566     0.40100
H2330       H  0.73410427  0.48647669  0.63246384     0.30200
H2331       H  0.81061686  0.51328418  0.63075737     0.37800
H2332       H  0.73799812  0.55584577  0.89409606     0.29700
H2333       H  0.63901187  0.51350389  0.57778917     0.29700
H2334       H  0.72797796  0.65211051  0.00830475     0.30000
C2335       C  0.60088163  0.58867591  0.62837572     0.79200
N2336       N  0.63930827  0.58257539  0.62209026    -0.79100
C2337       C  0.65817831  0.60078398  0.59591450     0.81600
N2338       N  0.63847918  0.62560771  0.57642120    -0.79100
C2339       C  0.60000927  0.63164097  0.58236120     0.81700
N2340       N  0.58120397  0.61327681  0.60846750    -0.80800
C2341       C  0.67871692  0.91424412  0.90165372     0.79200
N2342       N  0.64846295  0.93132862  0.88558437    -0.79100
C2343       C  0.63096047  0.91694653  0.85676153     0.81600
N2344       N  0.64381110  0.88493377  0.84372299    -0.79100
C2345       C  0.67348689  0.86676195  0.85951218     0.81700
N2346       N  0.69175593  0.88186896  0.88834405    -0.80800
Zr2347     Zr  0.50465807  0.52036350  0.69108834     2.17500
O2348       O  0.51596774  0.00527072  0.62866951    -0.52400
O2349       O  0.95325835  0.56321024  0.67368292    -0.75600
O2350       O  0.96438756  0.96995156  0.66858219    -0.82400
O2351       O  0.60023961  0.57374134  0.68857017    -0.84100
O2352       O  0.93499379  0.94601104  0.71731536    -0.79700
O2353       O  0.54869845  0.55640061  0.65439632    -0.91400
O2354       O  0.94235847  0.60159323  0.72000020    -0.77300
O2355       O  0.95634926  0.52486654  0.73653794    -0.86800
O2356       O  0.52098044  0.57231902  0.72594215    -0.86500
O2357       O  0.51213162  0.96569663  0.72545064    -0.73300
O2358       O  0.56928538  0.50982230  0.71437535    -0.85400
Zr2359     Zr  0.54252620  0.51296932  0.83062837     2.26400
Zr2360     Zr  0.96368210  0.97095102  0.77103282     2.06300
Zr2361     Zr  0.58445698  0.56155440  0.75002907     2.10000
Zr2362     Zr  0.97336269  0.57632752  0.77169256     1.78800
O2363       O  0.65403523  0.54889044  0.74701428    -0.94200
O2364       O  0.90435379  0.57314774  0.78636041    -0.42000
O2365       O  0.53659422  0.56658652  0.79556181    -0.78600
O2366       O  0.97775933  0.52287261  0.80748460    -0.97300
O2367       O  0.52683553  0.96084573  0.79591051    -0.90600
O2368       O  0.59153226  0.50850521  0.78556069    -0.93500
C2369       C  0.93703265  0.59122522  0.68788473     1.00300
C2370       C  0.58203317  0.57161655  0.65891754     1.13200
C2371       C  0.94148503  0.94710215  0.68370739     1.04000
O2372       O  0.89413692  0.98129943  0.77912196    -0.95600
O2373       O  0.94938625  0.95402716  0.83165872    -0.91400
O2374       O  0.99804577  0.97636833  0.86659887    -0.84500
C2375       C  0.96652778  0.95823370  0.86166112     1.10600
O2376       O  0.59581829  0.92866795  0.69502815    -0.97600
Zr2377     Zr  0.57485840  0.95672173  0.75064815     1.88900
O2378       O  0.59225365  0.96936945  0.84837231    -0.74300
O2379       O  0.95808201  0.90534358  0.77655037    -0.53500
O2380       O  0.55345022  0.89380543  0.74670800    -0.98200
O2381       O  0.64547771  0.95583677  0.74340539    -0.55400
O2382       O  0.59742329  0.92780116  0.80399339    -0.74800
C2383       C  0.60457345  0.93919427  0.83543490     0.97600
O2384       O  0.04282952  0.53106346  0.89312526    -0.63600
O2385       O  0.59642883  0.62612970  0.74268055    -0.58400
O2386       O  0.57602081  0.56808340  0.85231326    -0.95100
O2387       O  0.60553986  0.59211907  0.80369559    -0.93500
O2388       O  0.99199266  0.64003033  0.77160633    -0.93900
O2389       O  0.95933431  0.60885067  0.82668590    -0.92600
C2390       C  0.59791872  0.59183918  0.83711516     1.16400
H2391       H  0.52088707  0.59404166  0.71162290     0.32400
H2392       H  0.95914643  0.52495533  0.82663866     0.43200
H2393       H  0.61745046  0.50707273  0.79559968     0.36700
H2394       H  0.50850631  0.94410083  0.71130446     0.33200
H2395       H  0.89391127  0.59705533  0.77935785     0.25000
H2396       H  0.92994005  0.90019167  0.77359749     0.30900
H2397       H  0.57640998  0.87921816  0.75371226     0.36900
H2398       H  0.96746501  0.65338546  0.76706417     0.31300
H2399       H  0.62170163  0.62741391  0.73005899     0.30200
H2400       H  0.66658416  0.57072339  0.75725151     0.31900
H2401       H  0.65641613  0.96100842  0.76723806     0.30800
H2402       H  0.97418885  0.59566129  0.84513514     0.34800
H2403       H  0.01528425  0.53603571  0.89932257     0.27600
H2404       H  0.49023552  0.00663980  0.61681098     0.31800
H2405       H  0.61262407  0.90798933  0.70180677     0.34700
H2406       H  0.57695646  0.63441995  0.72507706     0.27300
H2407       H  0.04978683  0.50897248  0.90659110     0.40100
H2408       H  0.88414210  0.98703590  0.75509919     0.30200
H2409       H  0.89317490  0.55615057  0.76868933     0.37800
H2410       H  0.65145235  0.97766704  0.72920668     0.29700
H2411       H  0.97045627  0.89529359  0.75487403     0.29700
H2412       H  0.52319534  0.97928169  0.62816264     0.30000
C2413       C  0.86205747  0.61594737  0.62117912     0.79200
N2414       N  0.89233622  0.59877517  0.63743361    -0.79100
C2415       C  0.90887999  0.61260344  0.66707704     0.81600
N2416       N  0.89486223  0.64395979  0.68070776    -0.79100
C2417       C  0.86504077  0.66204431  0.66497098     0.81700
N2418       N  0.84796871  0.64768533  0.63518710    -0.80800
C2419       C  0.61220728  0.66836729  0.90133013     0.79200
N2420       N  0.59810100  0.63664382  0.88728803    -0.79100
C2421       C  0.61517259  0.62228681  0.85749950     0.81600
N2422       N  0.64502622  0.64036078  0.84180214    -0.79100
C2423       C  0.65905081  0.67170438  0.85546877     0.81700
N2424       N  0.64250182  0.68552910  0.88510480    -0.80800
C2425       C  0.69768058  0.84248551  0.62998488     0.79200
N2426       N  0.71702841  0.86660746  0.60922521    -0.79100
C2427       C  0.69829850  0.88253309  0.58149931     0.81600
N2428       N  0.66042319  0.87460878  0.57480352    -0.79100
C2429       C  0.64117900  0.85042999  0.59526445     0.81700
N2430       N  0.65985929  0.83458088  0.62296796    -0.80800
Zr2431     Zr  0.75469869  0.76395673  0.83143538     2.17500
O2432       O  0.76625859  0.77937991  0.89373188    -0.52400
O2433       O  0.70325444  0.72120809  0.84885785    -0.75600
O2434       O  0.71424765  0.81423103  0.85397044    -0.82400
O2435       O  0.85032009  0.71088317  0.83401041    -0.84100
O2436       O  0.68498337  0.83825933  0.80522063    -0.79700
O2437       O  0.79845864  0.72757921  0.86807886    -0.91400
O2438       O  0.69264496  0.68265471  0.80262614    -0.77300
O2439       O  0.70639988  0.75939224  0.78601712    -0.86800
O2440       O  0.77111754  0.71197688  0.79662166    -0.86500
O2441       O  0.76209079  0.81865757  0.79708328    -0.73300
O2442       O  0.81928675  0.77451688  0.80808912    -0.85400
Zr2443     Zr  0.79250236  0.77134534  0.69189482     2.26400
Zr2444     Zr  0.71363517  0.81329894  0.75151584     2.06300
Zr2445     Zr  0.83455739  0.72279915  0.77247912     2.10000
Zr2446     Zr  0.72349655  0.70794695  0.75089568     1.78800
O2447       O  0.90413204  0.73557698  0.77509655    -0.94200
O2448       O  0.65445074  0.71134483  0.73651354    -0.42000
O2449       O  0.78667991  0.71769856  0.72695016    -0.78600
O2450       O  0.72777664  0.76138720  0.71506893    -0.97300
O2451       O  0.77677455  0.82347485  0.72661894    -0.90600
O2452       O  0.84151895  0.77586961  0.73695639    -0.93500
C2453       C  0.68718570  0.69310010  0.83469238     1.00300
C2454       C  0.83195283  0.71265659  0.86360345     1.13200
C2455       C  0.69139101  0.83711174  0.83883311     1.04000
O2456       O  0.64422803  0.80203102  0.74364641    -0.95600
O2457       O  0.69955628  0.83054980  0.69094350    -0.91400
O2458       O  0.74780753  0.80766080  0.65587540    -0.84500
C2459       C  0.71648460  0.82606352  0.66088187     1.10600
O2460       O  0.84604791  0.85496303  0.82775769    -0.97600
Zr2461     Zr  0.82481863  0.82763750  0.77187289     1.88900
O2462       O  0.84218868  0.81496990  0.67412950    -0.74300
O2463       O  0.70698229  0.87882532  0.74593727    -0.53500
O2464       O  0.80374616  0.89063745  0.77616982    -0.98200
O2465       O  0.89543626  0.82853187  0.77901217    -0.55400
O2466       O  0.84735031  0.85656087  0.71849526    -0.74800
C2467       C  0.85452188  0.84514186  0.68706103     0.97600
O2468       O  0.79296296  0.75321060  0.62940788    -0.63600
O2469       O  0.84705564  0.65835445  0.78037211    -0.58400
O2470       O  0.82599444  0.71629833  0.67011178    -0.95100
O2471       O  0.85535942  0.69216711  0.71875821    -0.93500
O2472       O  0.74217575  0.64425497  0.75062155    -0.93900
O2473       O  0.70909829  0.67511919  0.69617437    -0.92600
C2474       C  0.84781020  0.69249715  0.68532722     1.16400
H2475       H  0.77105360  0.69024524  0.81093088     0.32400
H2476       H  0.70914364  0.75928328  0.69593190     0.43200
H2477       H  0.86742129  0.77733485  0.72688999     0.36700
H2478       H  0.75843158  0.84024034  0.81124334     0.33200
H2479       H  0.64426037  0.68702553  0.74236714     0.25000
H2480       H  0.67883682  0.88366417  0.74934304     0.30900
H2481       H  0.82675347  0.90514547  0.76913096     0.36900
H2482       H  0.71791105  0.63090514  0.75622068     0.31300
H2483       H  0.87233045  0.65728611  0.79302084     0.30200
H2484       H  0.91659097  0.71431753  0.76367074     0.31900
H2485       H  0.90633754  0.82317046  0.75520760     0.30800
H2486       H  0.72334510  0.68853754  0.67749072     0.34800
H2487       H  0.76549381  0.74776758  0.62330384     0.27600
H2488       H  0.74057524  0.77812037  0.90568982     0.31800
H2489       H  0.86238936  0.87602707  0.82117959     0.34700
H2490       H  0.82761812  0.65006048  0.79800727     0.27300
H2491       H  0.79944138  0.77539312  0.61588916     0.40100
H2492       H  0.63421183  0.79712727  0.76784214     0.30200
H2493       H  0.64316705  0.72732829  0.75501896     0.37800
H2494       H  0.90140483  0.80680198  0.79336211     0.29700
H2495       H  0.71967342  0.88909555  0.76736395     0.29700
H2496       H  0.77353178  0.80536098  0.89405524     0.30000
loop_ 
_geom_bond_atom_site_label_1 
_geom_bond_atom_site_label_2 
_geom_bond_distance 
_geom_bond_site_symmetry_2 
_ccdc_geom_bond_type 
C1            N2   1.356       .  A
C1            N6   1.359       .  A
C1          C191   1.463       .  S
N2            C3   1.358       .  A
C3            N4   1.352       .  A
C3          C128   1.462       .  S
N4            C5   1.355       .  A
C5            N6   1.360       .  A
C5           C41   1.451       .  S
C7            N8   1.358       .  A
C7           N12   1.369       .  A
C7           C49   1.476       .  S
N8            C9   1.347       .  A
C9           N10   1.351       .  A
C9          C283   1.464       .  S
N10          C11   1.357       .  A
C11          N12   1.370       .  A
C11         C187   1.474       .  S
Zr13         O19   2.453   1_556  S
Zr13        O327   2.466       .  S
Zr13       O1576   2.451   1_455  S
Zr13         O22   2.387   1_556  S
Zr13         O24   2.416   1_556  S
Zr13        O333   2.388       .  S
Zr13       O1271   2.430   1_456  S
Zr13       O1262   2.437   1_556  S
O14       Zr1261   2.437   1_554  S
O14          H70   0.990   1_554  S
O14          H78   0.990       .  S
O15        Zr325   2.466       .  S
O15          C35   1.288       .  A
O16       Zr1573   2.451       .  S
O16          C37   1.284       .  A
O17         Zr27   2.397       .  S
O17          C36   1.277       .  A
O18         Zr26   2.411       .  S
O18          C37   1.274       .  A
O19          C36   1.287       .  A
O20         Zr28   2.402       .  S
O20          C35   1.279       .  A
O21         Zr28   2.374       .  S
O21        Zr325   2.388       .  S
O21       Zr1274   2.392   1_455  S
O22         Zr27   2.393       .  S
O22        Zr340   2.374   1_554  S
O22          H57   0.967       .  S
O23         Zr43   2.381       .  S
O23       Zr1261   2.430   1_554  S
O23        Zr338   2.393   1_554  S
O23          H60   0.964       .  S
O24         Zr27   2.384       .  S
O24       Zr1291   2.400   1_455  S
Zr25         O52   2.466       .  S
Zr25       O1292   2.454   1_455  S
Zr25       O1600   2.455   1_454  S
Zr25         O31   2.404       .  S
Zr25         O34   2.394       .  S
Zr25        O344   2.417   1_554  S
Zr25       O1281   2.391   1_455  S
Zr25        O362   2.439       .  S
Zr26         O39   2.396       .  S
Zr26       O1269   2.392       .  S
Zr26        O335   2.393       .  S
Zr26       O1280   2.398       .  S
Zr26        O345   2.391       .  S
Zr26         O45   2.437       .  S
Zr26         O38   2.435       .  S
Zr27         O53   2.394       .  S
Zr27         O31   2.395       .  S
Zr27         O34   2.392       .  S
Zr27         O29   2.437       .  S
Zr27         O51   2.439       .  S
Zr28         O32   2.388       .  S
Zr28        O334   2.374       .  S
Zr28        O343   2.383       .  S
Zr28         O54   2.435       .  S
Zr28         O55   2.436       .  S
Zr28         O30   2.439       .  S
O29          H66   0.990       .  S
O30          H61   0.991       .  S
O30          H75   0.990       .  S
O31        Zr340   2.383   1_554  S
O32        Zr337   2.417       .  S
O32       Zr1274   2.398   1_455  S
O32          H58   0.965       .  S
O33         Zr43   2.377       .  S
O33       Zr1273   2.391       .  S
O33        Zr338   2.391   1_554  S
O34       Zr1291   2.367   1_455  S
O34          H59   0.966       .  S
C35         C235   1.479       .  S
C36         C155   1.456       .  S
C37          C81   1.468       .  S
O38          H74   0.990       .  S
O39          C41   1.277       .  A
O40       Zr1585   2.455       .  S
O40          C41   1.287       .  A
O42         Zr43   2.441       .  S
O42          H71   0.991       .  S
Zr43         O48   2.411       .  S
Zr43       O1272   2.400       .  S
Zr43       O1282   2.367       .  S
Zr43         O46   2.438       .  S
Zr43         O47   2.439       .  S
O44       Zr1273   2.454       .  S
O44          C49   1.285       .  A
O45          H62   0.990       .  S
O45          H77   0.990       .  S
O46          H63   0.990       .  S
O47          H67   0.990       .  S
O47          H76   0.990       .  S
O48          C49   1.282       .  A
O50        Zr337   2.439       .  S
O50          H69   0.990       .  S
O50          H73   0.991       .  S
O51          H65   0.990       .  S
O51          H72   0.990       .  S
O52          C56   1.288       .  A
O53          C56   1.271       .  A
O54          H64   0.990       .  S
O55          H68   0.990       .  S
C56         C245   1.462       .  S
C79          N80   1.358       .  A
C79          N84   1.359       .  A
C79         C270   1.463       .  S
N80          C81   1.358       .  A
C81          N82   1.356       .  A
N82          C83   1.357       .  A
C83          N84   1.358       .  A
C83         C108   1.456       .  S
Zr85         O87   2.466       .  S
Zr85         O88   2.449       .  S
Zr85        O403   2.453   1_554  S
Zr85         O93   2.389       .  S
Zr85         O94   2.387       .  S
Zr85         O95   2.431       .  S
Zr85        O408   2.415   1_554  S
Zr85        O398   2.438       .  S
O86        Zr397   2.438       .  S
O86         H142   0.990       .  S
O86         H150   0.990       .  S
O87         C107   1.288       .  A
O88         C109   1.283       .  A
O89         Zr99   2.398       .  S
O89         C108   1.277       .  A
O90         Zr98   2.412       .  S
O90         C109   1.274       .  A
O91        Zr397   2.453       .  S
O91         C108   1.287       .  A
O92        Zr100   2.401       .  S
O92         C107   1.279       .  A
O93         Zr98   2.392       .  S
O93        Zr100   2.374       .  S
O94        Zr100   2.374       .  S
O94        Zr411   2.393   1_554  S
O94         H129   0.967       .  S
O95         Zr98   2.393       .  S
O95        Zr427   2.381   1_554  S
O95         H132   0.964       .  S
O96         Zr99   2.384       .  S
O96        Zr115   2.399       .  S
O96        Zr397   2.415       .  S
Zr97        O112   2.456   1_556  S
Zr97        O428   2.455       .  S
Zr97        O436   2.466       .  S
Zr97        O103   2.404   1_556  S
Zr97        O104   2.417   1_556  S
Zr97        O105   2.391   1_556  S
Zr97        O418   2.393       .  S
Zr97        O122   2.439       .  S
Zr98        O735   2.396   1_545  S
Zr98        O728   2.399   1_545  S
Zr98        O729   2.391   1_545  S
Zr98        O117   2.437       .  S
Zr98        O734   2.435   1_545  S
Zr99        O749   2.394   1_545  S
Zr99        O406   2.393       .  S
Zr99       O1039   2.396   1_545  S
Zr99        O730   2.392   1_545  S
Zr99        O101   2.437       .  S
Zr99        O123   2.440       .  S
Zr100       O727   2.383   1_545  S
Zr100       O728   2.389   1_545  S
Zr100       O126   2.435       .  S
Zr100       O102   2.439   1_545  S
Zr100       O751   2.436   1_545  S
O101        H138   0.990       .  S
O102        H133   0.991   1_565  S
O102        H147   0.990   1_565  S
O103      Zr1035   2.396   1_554  S
O103       Zr724   2.383       .  S
O104       Zr722   2.399       .  S
O104       Zr724   2.389       .  S
O104        H130   0.965       .  S
O105       Zr722   2.391       .  S
O105      Zr1051   2.377   1_554  S
O106       Zr409   2.393       .  S
O106       Zr723   2.392       .  S
O106       Zr739   2.367       .  S
O106        H131   0.966       .  S
C107        C229   1.479       .  S
C109        C153   1.467       .  S
O110       Zr722   2.435       .  S
O110        H770   0.990       .  S
O111       Zr722   2.396       .  S
O111        C113   1.277       .  A
O112        C113   1.287       .  A
C113        C243   1.451       .  S
O114       Zr115   2.440       .  S
O114        H143   0.991       .  S
Zr115       O744   2.410   1_545  S
Zr115       O407   2.381       .  S
Zr115      O1041   2.377   1_545  S
Zr115       O730   2.367   1_545  S
Zr115       O118   2.437       .  S
Zr115       O119   2.439       .  S
O116       Zr409   2.455       .  S
O116        C121   1.285       .  A
O117        H149   0.990       .  S
O117        H758   0.990   1_545  S
O118        H135   0.990       .  S
O119        H139   0.990       .  S
O119        H148   0.990       .  S
O120       Zr739   2.410       .  S
O120        C121   1.282       .  A
C121        C157   1.475       .  S
O122        H141   0.990       .  S
O122        H145   0.991   1_556  S
O123        H137   0.990       .  S
O123        H144   0.990       .  S
O124       Zr409   2.466       .  S
O124        C128   1.288       .  A
O125       Zr723   2.394       .  S
O125        C128   1.271       .  A
O126        H136   0.990       .  S
O127       Zr724   2.436       .  S
O127        H140   0.990       .  S
H134        O741   0.990       .  S
H146        O734   0.990       .  S
C151        N152   1.358       .  A
C151        N156   1.358       .  A
C151        C186   1.463       .  S
N152        C153   1.358       .  A
C153        N154   1.356       .  A
N154        C155   1.357       .  A
C155        N156   1.358       .  A
C157        N158   1.358       .  A
C157        N162   1.369       .  A
N158        C159   1.347       .  A
C159        N160   1.351       .  A
C159        C199   1.464       .  S
N160        C161   1.357       .  A
C161        N162   1.369       .  A
C161        C271   1.474       .  S
Zr163       O169   2.443       .  S
Zr163      O1413   2.459   1_455  S
Zr163      O2038   2.464   1_445  S
Zr163       O172   2.385       .  S
Zr163       O174   2.416       .  S
Zr163      O1419   2.387   1_455  S
Zr163       O797   2.413   1_545  S
Zr163       O788   2.442       .  S
O164       Zr787   2.442       .  S
O164        H220   0.991   1_455  S
O164        H228   0.991       .  S
O165      Zr1411   2.459       .  S
O165        C185   1.288       .  A
O166      Zr2035   2.464       .  S
O166        C187   1.287       .  A
O167       Zr177   2.418       .  S
O167        C186   1.281       .  A
O168       Zr176   2.426       .  S
O168        C187   1.285       .  A
O169        C186   1.285       .  A
O170       Zr178   2.407       .  S
O170        C185   1.279       .  A
O171       Zr178   2.382       .  S
O171      Zr1411   2.387       .  S
O171       Zr800   2.392   1_545  S
O172       Zr177   2.393       .  S
O172      Zr1426   2.377   1_455  S
O172        H207   0.967       .  S
O173       Zr193   2.375       .  S
O173       Zr787   2.413       .  S
O173      Zr1424   2.396   1_455  S
O173        H210   0.965       .  S
O174       Zr177   2.386       .  S
O174       Zr817   2.399   1_545  S
Zr175       O202   2.471       .  S
Zr175       O818   2.440   1_545  S
Zr175      O2062   2.449   1_445  S
Zr175       O181   2.390       .  S
Zr175       O184   2.393       .  S
Zr175      O1430   2.415   1_455  S
Zr175       O807   2.382   1_545  S
Zr175      O1448   2.442       .  S
Zr176       O189   2.417       .  S
Zr176       O795   2.392       .  S
Zr176      O1421   2.396       .  S
Zr176       O806   2.401       .  S
Zr176      O1431   2.390       .  S
Zr176       O195   2.438       .  S
Zr176       O188   2.435       .  S
Zr177       O203   2.419       .  S
Zr177       O181   2.380       .  S
Zr177       O184   2.387       .  S
Zr177       O179   2.435       .  S
Zr177       O201   2.434       .  S
Zr178       O182   2.397       .  S
Zr178      O1420   2.377       .  S
Zr178      O1429   2.376       .  S
Zr178       O204   2.436       .  S
Zr178       O205   2.436       .  S
Zr178       O180   2.434       .  S
O179        H216   0.990       .  S
O180        H211   0.989       .  S
O180        H225   0.990       .  S
O181      Zr1426   2.376   1_455  S
O182      Zr1423   2.415       .  S
O182       Zr800   2.401   1_545  S
O182        H208   0.966       .  S
O183       Zr193   2.374       .  S
O183       Zr799   2.382       .  S
O183      Zr1424   2.390   1_455  S
O184       Zr817   2.384   1_545  S
O184        H209   0.968       .  S
C185        C231   1.474       .  S
O188        H224   0.990       .  S
O189        C191   1.282       .  A
O190      Zr2047   2.449       .  S
O190        C191   1.285       .  A
O192       Zr193   2.439       .  S
O192        H221   0.990       .  S
Zr193       O198   2.404       .  S
Zr193       O798   2.399       .  S
Zr193       O808   2.384       .  S
Zr193       O196   2.439       .  S
Zr193       O197   2.438       .  S
O194       Zr799   2.440       .  S
O194        C199   1.285       .  A
O195        H212   0.990       .  S
O195        H227   0.990       .  S
O196        H213   0.990       .  S
O197        H217   0.990       .  S
O197        H226   0.990       .  S
O198        C199   1.278       .  A
O200      Zr1423   2.442       .  S
O200        H219   0.990       .  S
O200        H223   0.990       .  S
O201        H215   0.990       .  S
O201        H222   0.990       .  S
O202        C206   1.290       .  A
O203        C206   1.284       .  A
O204        H214   0.990       .  S
O205        H218   0.990       .  S
C206        C237   1.481       .  S
C229        N230   1.363       .  A
C229        N234   1.370       .  A
N230        C231   1.350       .  A
C231        N232   1.352       .  A
N232        C233   1.358       .  A
C233        N234   1.369       .  A
C233        C290   1.481       .  S
C235        N236   1.371       .  A
C235        N240   1.363       .  A
N236        C237   1.369       .  A
C237        N238   1.358       .  A
N238        C239   1.352       .  A
C239        N240   1.350       .  A
C239        C269   1.473       .  S
C241        N242   1.359       .  A
C241        N246   1.356       .  A
C241        C275   1.463       .  S
N242        C243   1.360       .  A
C243        N244   1.355       .  A
N244        C245   1.352       .  A
C245        N246   1.358       .  A
Zr247       O249   2.458       .  S
Zr247       O250   2.465       .  S
Zr247       O253   2.443       .  S
Zr247       O255   2.386       .  S
Zr247       O256   2.386       .  S
Zr247       O257   2.414       .  S
Zr247       O258   2.416       .  S
Zr247       O248   2.442       .  S
O248        H304   0.991       .  S
O248        H312   0.991       .  S
O249        C269   1.288       .  A
O250        C271   1.287       .  A
O251       Zr261   2.419       .  S
O251        C270   1.281       .  A
O252       Zr260   2.425       .  S
O252        C271   1.284       .  A
O253        C270   1.285       .  A
O254       Zr262   2.407       .  S
O254        C269   1.279       .  A
O255       Zr260   2.392       .  S
O255       Zr262   2.382       .  S
O256       Zr261   2.393       .  S
O256       Zr262   2.377       .  S
O256        H291   0.967       .  S
O257       Zr260   2.396       .  S
O257       Zr277   2.376       .  S
O257        H294   0.965       .  S
O258       Zr261   2.386       .  S
O258       Zr277   2.399       .  S
Zr259       O278   2.439       .  S
Zr259       O286   2.471       .  S
Zr259       O274   2.449       .  S
Zr259       O265   2.391       .  S
Zr259       O266   2.414       .  S
Zr259       O267   2.383       .  S
Zr259       O268   2.393       .  S
Zr259       O284   2.442       .  S
Zr260       O273   2.417       .  S
Zr260       O266   2.401       .  S
Zr260       O267   2.390       .  S
Zr260       O279   2.438       .  S
Zr260       O272   2.435       .  S
Zr261       O287   2.419       .  S
Zr261       O265   2.380       .  S
Zr261       O268   2.387       .  S
Zr261       O263   2.435       .  S
Zr261       O285   2.435       .  S
Zr262       O265   2.375       .  S
Zr262       O266   2.397       .  S
Zr262       O288   2.436       .  S
Zr262       O289   2.435       .  S
Zr262       O264   2.433       .  S
O263        H300   0.990       .  S
O264        H295   0.989       .  S
O264        H309   0.990       .  S
O266        H292   0.966       .  S
O267       Zr277   2.374       .  S
O268       Zr277   2.384       .  S
O268        H293   0.968       .  S
O272        H308   0.990       .  S
O273        C275   1.282       .  A
O274        C275   1.285       .  A
O276       Zr277   2.439       .  S
O276        H305   0.990       .  S
Zr277       O282   2.405       .  S
Zr277       O280   2.439       .  S
Zr277       O281   2.438       .  S
O278        C283   1.285       .  A
O279        H296   0.990       .  S
O279        H311   0.990       .  S
O280        H297   0.990       .  S
O281        H301   0.990       .  S
O281        H310   0.990       .  S
O282        C283   1.278       .  A
O284        H303   0.990       .  S
O284        H307   0.990       .  S
O285        H299   0.990       .  S
O285        H306   0.990       .  S
O286        C290   1.289       .  A
O287        C290   1.284       .  A
O288        H298   0.990       .  S
O289        H302   0.990       .  S
C313        N314   1.356       .  A
C313        N318   1.359       .  A
C313        C503   1.463       .  S
N314        C315   1.358       .  A
C315        N316   1.352       .  A
C315        C440   1.462       .  S
N316        C317   1.355       .  A
C317        N318   1.360       .  A
C317        C353   1.451       .  S
C319        N320   1.358       .  A
C319        N324   1.369       .  A
C319        C361   1.476       .  S
N320        C321   1.347       .  A
C321        N322   1.351       .  A
C321        C595   1.464       .  S
N322        C323   1.357       .  A
C323        N324   1.370       .  A
C323        C499   1.474       .  S
Zr325      O1264   2.451   1_455  S
Zr325       O331   2.453       .  S
Zr325       O334   2.387       .  S
Zr325      O1583   2.430   1_455  S
Zr325       O336   2.416       .  S
Zr325      O1574   2.437       .  S
O326      Zr1573   2.437       .  S
O326        H382   0.990       .  S
O326        H390   0.990       .  S
O327        C347   1.288       .  A
O328      Zr1261   2.451       .  S
O328        C349   1.284       .  A
O329       Zr339   2.397       .  S
O329        C348   1.277       .  A
O330       Zr338   2.411       .  S
O330        C349   1.274       .  A
O331        C348   1.287       .  A
O332       Zr340   2.402       .  S
O332        C347   1.279       .  A
O333      Zr1586   2.392   1_455  S
O333       Zr340   2.374       .  S
O334       Zr339   2.393       .  S
O334        H369   0.967       .  S
O335      Zr1573   2.430       .  S
O335       Zr355   2.381       .  S
O335        H372   0.964       .  S
O336       Zr339   2.384       .  S
O336      Zr1603   2.400   1_455  S
Zr337      O1604   2.454   1_455  S
Zr337       O364   2.466       .  S
Zr337      O1288   2.455   1_455  S
Zr337       O343   2.404       .  S
Zr337      O1593   2.391   1_455  S
Zr337       O346   2.394       .  S
Zr338       O351   2.396       .  S
Zr338      O1581   2.392       .  S
Zr338      O1592   2.398       .  S
Zr338       O357   2.437       .  S
Zr338       O350   2.435       .  S
Zr339       O365   2.394       .  S
Zr339       O343   2.395       .  S
Zr339       O346   2.392       .  S
Zr339       O341   2.437       .  S
Zr339       O363   2.439       .  S
Zr340       O344   2.388       .  S
Zr340       O366   2.435       .  S
Zr340       O367   2.436       .  S
Zr340       O342   2.439       .  S
O341        H378   0.990       .  S
O342        H373   0.991       .  S
O342        H387   0.990       .  S
O344      Zr1586   2.398   1_455  S
O344        H370   0.965       .  S
O345      Zr1585   2.391       .  S
O345       Zr355   2.377       .  S
O346      Zr1603   2.367   1_455  S
O346        H371   0.966       .  S
C347        C547   1.479       .  S
C348        C467   1.456       .  S
C349        C393   1.468       .  S
O350        H386   0.990       .  S
O351        C353   1.277       .  A
O352      Zr1273   2.455   1_556  S
O352        C353   1.287       .  A
O354       Zr355   2.441       .  S
O354        H383   0.991       .  S
Zr355       O360   2.411       .  S
Zr355      O1584   2.400       .  S
Zr355      O1594   2.367       .  S
Zr355       O358   2.438       .  S
Zr355       O359   2.439       .  S
O356      Zr1585   2.454       .  S
O356        C361   1.285       .  A
O357        H374   0.990       .  S
O357        H389   0.990       .  S
O358        H375   0.990       .  S
O359        H379   0.990       .  S
O359        H388   0.990       .  S
O360        C361   1.282       .  A
O362        H381   0.990       .  S
O362        H385   0.991       .  S
O363        H377   0.990       .  S
O363        H384   0.990       .  S
O364        C368   1.288       .  A
O365        C368   1.271       .  A
O366        H376   0.990       .  S
O367        H380   0.990       .  S
C368        C557   1.462       .  S
C391        N392   1.358       .  A
C391        N396   1.359       .  A
C391        C582   1.463       .  S
N392        C393   1.358       .  A
C393        N394   1.356       .  A
N394        C395   1.357       .  A
C395        N396   1.358       .  A
C395        C420   1.456       .  S
Zr397       O399   2.466       .  S
Zr397       O400   2.449       .  S
Zr397       O405   2.389       .  S
Zr397       O406   2.387       .  S
Zr397       O407   2.431       .  S
O398        H454   0.990       .  S
O398        H462   0.990       .  S
O399        C419   1.288       .  A
O400        C421   1.283       .  A
O401       Zr411   2.398       .  S
O401        C420   1.277       .  A
O402       Zr410   2.412       .  S
O402        C421   1.274       .  A
O403        C420   1.287       .  A
O404       Zr412   2.401       .  S
O404        C419   1.279       .  A
O405       Zr410   2.392       .  S
O405       Zr412   2.374       .  S
O406       Zr412   2.374       .  S
O406        H441   0.967       .  S
O407       Zr410   2.393       .  S
O407        H444   0.964       .  S
O408       Zr411   2.384       .  S
O408       Zr427   2.399       .  S
Zr409       O424   2.456       .  S
Zr409       O415   2.404       .  S
Zr409       O416   2.417       .  S
Zr409       O417   2.391       .  S
Zr409       O434   2.439       .  S
Zr410      O1047   2.396   1_545  S
Zr410      O1040   2.399   1_545  S
Zr410      O1041   2.391   1_545  S
Zr410       O429   2.437       .  S
Zr410      O1046   2.435   1_545  S
Zr411      O1061   2.394   1_545  S
Zr411       O727   2.396   1_546  S
Zr411      O1042   2.392   1_545  S
Zr411       O413   2.437       .  S
Zr411       O435   2.440       .  S
Zr412      O1039   2.383   1_545  S
Zr412      O1040   2.389   1_545  S
Zr412       O438   2.435       .  S
Zr412      O1063   2.436   1_545  S
Zr412       O414   2.439   1_545  S
O413        H450   0.990       .  S
O414        H445   0.991   1_565  S
O414        H459   0.990   1_565  S
O415       Zr723   2.396       .  S
O415      Zr1036   2.383       .  S
O416      Zr1034   2.399       .  S
O416      Zr1036   2.389       .  S
O416        H442   0.965       .  S
O417      Zr1034   2.391       .  S
O417       Zr739   2.377       .  S
O418      Zr1035   2.392       .  S
O418      Zr1051   2.367       .  S
O418        H443   0.966       .  S
C419        C541   1.479       .  S
C421        C465   1.467       .  S
O422      Zr1034   2.435       .  S
O422       H1082   0.990       .  S
O423      Zr1034   2.396       .  S
O423        C425   1.277       .  A
O424        C425   1.287       .  A
C425        C555   1.451       .  S
O426       Zr427   2.440       .  S
O426        H455   0.991       .  S
Zr427      O1056   2.410   1_545  S
Zr427       O729   2.377   1_546  S
Zr427      O1042   2.367   1_545  S
Zr427       O430   2.437       .  S
Zr427       O431   2.439       .  S
O428        C433   1.285       .  A
O429       H1070   0.990   1_545  S
O429        H461   0.990       .  S
O430        H447   0.990       .  S
O431        H451   0.990       .  S
O431        H460   0.990       .  S
O432      Zr1051   2.410       .  S
O432        C433   1.282       .  A
C433        C469   1.475       .  S
O434        H453   0.990       .  S
O434        H457   0.991       .  S
O435        H449   0.990       .  S
O435        H456   0.990       .  S
O436        C440   1.288       .  A
O437      Zr1035   2.394       .  S
O437        C440   1.271       .  A
O438        H448   0.990       .  S
O439      Zr1036   2.436       .  S
O439        H452   0.990       .  S
H446       O1053   0.990       .  S
H458       O1046   0.990       .  S
C463        N464   1.358       .  A
C463        N468   1.358       .  A
C463        C498   1.463       .  S
N464        C465   1.358       .  A
C465        N466   1.356       .  A
N466        C467   1.357       .  A
C467        N468   1.358       .  A
C469        N470   1.358       .  A
C469        N474   1.369       .  A
N470        C471   1.347       .  A
C471        N472   1.351       .  A
C471        C511   1.464       .  S
N472        C473   1.357       .  A
C473        N474   1.369       .  A
C473        C583   1.474       .  S
Zr475      O1725   2.459   1_455  S
Zr475      O2350   2.464   1_445  S
Zr475       O481   2.443       .  S
Zr475      O1731   2.387   1_455  S
Zr475       O484   2.385       .  S
Zr475      O1109   2.413   1_545  S
Zr475       O486   2.416       .  S
Zr475      O1100   2.442       .  S
O476      Zr1099   2.442       .  S
O476        H532   0.991   1_455  S
O476        H540   0.991       .  S
O477      Zr1723   2.459       .  S
O477        C497   1.288       .  A
O478      Zr2347   2.464       .  S
O478        C499   1.287       .  A
O479       Zr489   2.418       .  S
O479        C498   1.281       .  A
O480       Zr488   2.426       .  S
O480        C499   1.285       .  A
O481        C498   1.285       .  A
O482       Zr490   2.407       .  S
O482        C497   1.279       .  A
O483      Zr1723   2.387       .  S
O483      Zr1112   2.392   1_545  S
O483       Zr490   2.382       .  S
O484       Zr489   2.393       .  S
O484      Zr1738   2.377   1_455  S
O484        H519   0.967       .  S
O485      Zr1099   2.413       .  S
O485      Zr1736   2.396   1_455  S
O485       Zr505   2.375       .  S
O485        H522   0.965       .  S
O486       Zr489   2.386       .  S
O486      Zr1129   2.399   1_545  S
Zr487      O1130   2.440   1_545  S
Zr487       O514   2.471       .  S
Zr487      O2374   2.449   1_445  S
Zr487       O493   2.390       .  S
Zr487      O1742   2.415   1_455  S
Zr487      O1119   2.382   1_545  S
Zr487       O496   2.393       .  S
Zr487      O1760   2.442       .  S
Zr488       O501   2.417       .  S
Zr488      O1107   2.392       .  S
Zr488      O1733   2.396       .  S
Zr488      O1118   2.401       .  S
Zr488      O1743   2.390       .  S
Zr488       O507   2.438       .  S
Zr488       O500   2.435       .  S
Zr489       O515   2.419       .  S
Zr489       O493   2.380       .  S
Zr489       O496   2.387       .  S
Zr489       O491   2.435       .  S
Zr489       O513   2.434       .  S
Zr490      O1732   2.377       .  S
Zr490      O1741   2.376       .  S
Zr490       O494   2.397       .  S
Zr490       O516   2.436       .  S
Zr490       O517   2.436       .  S
Zr490       O492   2.434       .  S
O491        H528   0.990       .  S
O492        H523   0.989       .  S
O492        H537   0.990       .  S
O493      Zr1738   2.376   1_455  S
O494      Zr1735   2.415       .  S
O494      Zr1112   2.401   1_545  S
O494        H520   0.966       .  S
O495      Zr1111   2.382       .  S
O495      Zr1736   2.390   1_455  S
O495       Zr505   2.374       .  S
O496      Zr1129   2.384   1_545  S
O496        H521   0.968       .  S
C497        C543   1.474       .  S
O500        H536   0.990       .  S
O501        C503   1.282       .  A
O502      Zr2359   2.449       .  S
O502        C503   1.285       .  A
O504       Zr505   2.439       .  S
O504        H533   0.990       .  S
Zr505       O510   2.404       .  S
Zr505      O1110   2.399       .  S
Zr505      O1120   2.384       .  S
Zr505       O508   2.439       .  S
Zr505       O509   2.438       .  S
O506      Zr1111   2.440       .  S
O506        C511   1.285       .  A
O507        H524   0.990       .  S
O507        H539   0.990       .  S
O508        H525   0.990       .  S
O509        H529   0.990       .  S
O509        H538   0.990       .  S
O510        C511   1.278       .  A
O512      Zr1735   2.442       .  S
O512        H531   0.990       .  S
O512        H535   0.990       .  S
O513        H527   0.990       .  S
O513        H534   0.990       .  S
O514        C518   1.290       .  A
O515        C518   1.284       .  A
O516        H526   0.990       .  S
O517        H530   0.990       .  S
C518        C549   1.481       .  S
C541        N542   1.363       .  A
C541        N546   1.370       .  A
N542        C543   1.350       .  A
C543        N544   1.352       .  A
N544        C545   1.358       .  A
C545        N546   1.369       .  A
C545        C602   1.481       .  S
C547        N548   1.371       .  A
C547        N552   1.363       .  A
N548        C549   1.369       .  A
C549        N550   1.358       .  A
N550        C551   1.352       .  A
C551        N552   1.350       .  A
C551        C581   1.473       .  S
C553        N554   1.359       .  A
C553        N558   1.356       .  A
C553        C587   1.463       .  S
N554        C555   1.360       .  A
C555        N556   1.355       .  A
N556        C557   1.352       .  A
C557        N558   1.358       .  A
Zr559       O561   2.458       .  S
Zr559       O562   2.465       .  S
Zr559       O565   2.443       .  S
Zr559       O567   2.386       .  S
Zr559       O568   2.386       .  S
Zr559       O569   2.414       .  S
Zr559       O570   2.416       .  S
Zr559       O560   2.442       .  S
O560        H616   0.991       .  S
O560        H624   0.991       .  S
O561        C581   1.288       .  A
O562        C583   1.287       .  A
O563       Zr573   2.419       .  S
O563        C582   1.281       .  A
O564       Zr572   2.425       .  S
O564        C583   1.284       .  A
O565        C582   1.285       .  A
O566       Zr574   2.407       .  S
O566        C581   1.279       .  A
O567       Zr572   2.392       .  S
O567       Zr574   2.382       .  S
O568       Zr573   2.393       .  S
O568       Zr574   2.377       .  S
O568        H603   0.967       .  S
O569       Zr572   2.396       .  S
O569       Zr589   2.376       .  S
O569        H606   0.965       .  S
O570       Zr573   2.386       .  S
O570       Zr589   2.399       .  S
Zr571       O590   2.439       .  S
Zr571       O598   2.471       .  S
Zr571       O586   2.449       .  S
Zr571       O577   2.391       .  S
Zr571       O578   2.414       .  S
Zr571       O579   2.383       .  S
Zr571       O580   2.393       .  S
Zr571       O596   2.442       .  S
Zr572       O585   2.417       .  S
Zr572       O578   2.401       .  S
Zr572       O579   2.390       .  S
Zr572       O591   2.438       .  S
Zr572       O584   2.435       .  S
Zr573       O599   2.419       .  S
Zr573       O577   2.380       .  S
Zr573       O580   2.387       .  S
Zr573       O575   2.435       .  S
Zr573       O597   2.435       .  S
Zr574       O577   2.375       .  S
Zr574       O578   2.397       .  S
Zr574       O600   2.436       .  S
Zr574       O601   2.435       .  S
Zr574       O576   2.433       .  S
O575        H612   0.990       .  S
O576        H607   0.989       .  S
O576        H621   0.990       .  S
O578        H604   0.966       .  S
O579       Zr589   2.374       .  S
O580       Zr589   2.384       .  S
O580        H605   0.968       .  S
O584        H620   0.990       .  S
O585        C587   1.282       .  A
O586        C587   1.285       .  A
O588       Zr589   2.439       .  S
O588        H617   0.990       .  S
Zr589       O594   2.405       .  S
Zr589       O592   2.439       .  S
Zr589       O593   2.438       .  S
O590        C595   1.285       .  A
O591        H608   0.990       .  S
O591        H623   0.990       .  S
O592        H609   0.990       .  S
O593        H613   0.990       .  S
O593        H622   0.990       .  S
O594        C595   1.278       .  A
O596        H615   0.990       .  S
O596        H619   0.990       .  S
O597        H611   0.990       .  S
O597        H618   0.990       .  S
O598        C602   1.289       .  A
O599        C602   1.284       .  A
O600        H610   0.990       .  S
O601        H614   0.990       .  S
C625        N626   1.356       .  A
C625        N630   1.359       .  A
C625        C815   1.463       .  S
N626        C627   1.358       .  A
C627        N628   1.352       .  A
C627        C752   1.462       .  S
N628        C629   1.355       .  A
C629        N630   1.360       .  A
C629        C665   1.451       .  S
C631        N632   1.358       .  A
C631        N636   1.369       .  A
C631        C673   1.476       .  S
N632        C633   1.347       .  A
C633        N634   1.351       .  A
C633        C907   1.464       .  S
N634        C635   1.357       .  A
C635        N636   1.370       .  A
C635        C811   1.474       .  S
Zr637       O951   2.466       .  S
Zr637      O2200   2.451   1_455  S
Zr637       O643   2.453   1_556  S
Zr637       O957   2.388       .  S
Zr637       O646   2.387   1_556  S
Zr637      O1895   2.430   1_456  S
Zr637       O648   2.416   1_556  S
Zr637      O1886   2.437   1_556  S
O638      Zr1885   2.437   1_554  S
O638        H694   0.990   1_554  S
O638        H702   0.990       .  S
O639       Zr949   2.466       .  S
O639        C659   1.288       .  A
O640      Zr2197   2.451       .  S
O640        C661   1.284       .  A
O641       Zr651   2.397       .  S
O641        C660   1.277       .  A
O642       Zr650   2.411       .  S
O642        C661   1.274       .  A
O643        C660   1.287       .  A
O644       Zr652   2.402       .  S
O644        C659   1.279       .  A
O645       Zr949   2.388       .  S
O645      Zr1898   2.392   1_455  S
O645       Zr652   2.374       .  S
O646       Zr651   2.393       .  S
O646       Zr964   2.374   1_554  S
O646        H681   0.967       .  S
O647      Zr1885   2.430   1_554  S
O647       Zr962   2.393   1_554  S
O647       Zr667   2.381       .  S
O647        H684   0.964       .  S
O648       Zr651   2.384       .  S
O648      Zr1915   2.400   1_455  S
Zr649      O1916   2.454   1_455  S
Zr649       O676   2.466       .  S
Zr649      O2224   2.455   1_454  S
Zr649       O655   2.404       .  S
Zr649       O968   2.417   1_554  S
Zr649      O1905   2.391   1_455  S
Zr649       O658   2.394       .  S
Zr649       O986   2.439       .  S
Zr650       O663   2.396       .  S
Zr650      O1893   2.392       .  S
Zr650       O959   2.393       .  S
Zr650      O1904   2.398       .  S
Zr650       O969   2.391       .  S
Zr650       O669   2.437       .  S
Zr650       O662   2.435       .  S
Zr651       O677   2.394       .  S
Zr651       O655   2.395       .  S
Zr651       O658   2.392       .  S
Zr651       O653   2.437       .  S
Zr651       O675   2.439       .  S
Zr652       O958   2.374       .  S
Zr652       O967   2.383       .  S
Zr652       O656   2.388       .  S
Zr652       O678   2.435       .  S
Zr652       O679   2.436       .  S
Zr652       O654   2.439       .  S
O653        H690   0.990       .  S
O654        H685   0.991       .  S
O654        H699   0.990       .  S
O655       Zr964   2.383   1_554  S
O656       Zr961   2.417       .  S
O656      Zr1898   2.398   1_455  S
O656        H682   0.965       .  S
O657      Zr1897   2.391       .  S
O657       Zr962   2.391   1_554  S
O657       Zr667   2.377       .  S
O658      Zr1915   2.367   1_455  S
O658        H683   0.966       .  S
C659        C859   1.479       .  S
C660        C779   1.456       .  S
C661        C705   1.468       .  S
O662        H698   0.990       .  S
O663        C665   1.277       .  A
O664      Zr2209   2.455       .  S
O664        C665   1.287       .  A
O666       Zr667   2.441       .  S
O666        H695   0.991       .  S
Zr667       O672   2.411       .  S
Zr667      O1896   2.400       .  S
Zr667      O1906   2.367       .  S
Zr667       O670   2.438       .  S
Zr667       O671   2.439       .  S
O668      Zr1897   2.454       .  S
O668        C673   1.285       .  A
O669        H686   0.990       .  S
O669        H701   0.990       .  S
O670        H687   0.990       .  S
O671        H691   0.990       .  S
O671        H700   0.990       .  S
O672        C673   1.282       .  A
O674       Zr961   2.439       .  S
O674        H693   0.990       .  S
O674        H697   0.991       .  S
O675        H689   0.990       .  S
O675        H696   0.990       .  S
O676        C680   1.288       .  A
O677        C680   1.271       .  A
O678        H688   0.990       .  S
O679        H692   0.990       .  S
C680        C869   1.462       .  S
C703        N704   1.358       .  A
C703        N708   1.359       .  A
C703        C894   1.463       .  S
N704        C705   1.358       .  A
C705        N706   1.356       .  A
N706        C707   1.357       .  A
C707        N708   1.358       .  A
C707        C732   1.456       .  S
Zr709       O711   2.466       .  S
Zr709       O712   2.449       .  S
Zr709      O1027   2.453   1_554  S
Zr709       O717   2.389       .  S
Zr709       O718   2.387       .  S
Zr709       O719   2.431       .  S
Zr709      O1032   2.415   1_554  S
Zr709      O1022   2.438       .  S
O710      Zr1021   2.438       .  S
O710        H766   0.990       .  S
O710        H774   0.990       .  S
O711        C731   1.288       .  A
O712        C733   1.283       .  A
O713       Zr723   2.398       .  S
O713        C732   1.277       .  A
O714       Zr722   2.412       .  S
O714        C733   1.274       .  A
O715      Zr1021   2.453       .  S
O715        C732   1.287       .  A
O716       Zr724   2.401       .  S
O716        C731   1.279       .  A
O717       Zr722   2.392       .  S
O717       Zr724   2.374       .  S
O718      Zr1035   2.393   1_554  S
O718       Zr724   2.374       .  S
O718        H753   0.967       .  S
O719       Zr722   2.393       .  S
O719      Zr1051   2.381   1_554  S
O719        H756   0.964       .  S
O720      Zr1021   2.415       .  S
O720       Zr723   2.384       .  S
O720       Zr739   2.399       .  S
Zr721      O1052   2.455       .  S
Zr721      O1060   2.466       .  S
Zr721       O736   2.456   1_556  S
Zr721       O727   2.404   1_556  S
Zr721       O728   2.417   1_556  S
Zr721       O729   2.391   1_556  S
Zr721      O1042   2.393       .  S
Zr721       O746   2.439       .  S
Zr722       O741   2.437       .  S
Zr723      O1030   2.393       .  S
Zr723       O725   2.437       .  S
Zr723       O747   2.440       .  S
Zr724       O750   2.435       .  S
Zr724       O726   2.439       .  S
O725        H762   0.990       .  S
O726        H757   0.991       .  S
O726        H771   0.990       .  S
O728        H754   0.965       .  S
O730      Zr1033   2.393       .  S
O730        H755   0.966       .  S
C731        C853   1.479       .  S
C733        C777   1.467       .  S
O735        C737   1.277       .  A
O736        C737   1.287       .  A
C737        C867   1.451       .  S
O738       Zr739   2.440       .  S
O738        H767   0.991       .  S
Zr739      O1031   2.381       .  S
Zr739       O742   2.437       .  S
Zr739       O743   2.439       .  S
O740      Zr1033   2.455       .  S
O740        C745   1.285       .  A
O741        H773   0.990       .  S
O742        H759   0.990       .  S
O743        H763   0.990       .  S
O743        H772   0.990       .  S
O744        C745   1.282       .  A
C745        C781   1.475       .  S
O746        H765   0.990       .  S
O746        H769   0.991   1_556  S
O747        H761   0.990       .  S
O747        H768   0.990       .  S
O748      Zr1033   2.466       .  S
O748        C752   1.288       .  A
O749        C752   1.271       .  A
O750        H760   0.990       .  S
O751        H764   0.990       .  S
C775        N776   1.358       .  A
C775        N780   1.358       .  A
C775        C810   1.463       .  S
N776        C777   1.358       .  A
C777        N778   1.356       .  A
N778        C779   1.357       .  A
C779        N780   1.358       .  A
C781        N782   1.358       .  A
C781        N786   1.369       .  A
N782        C783   1.347       .  A
C783        N784   1.351       .  A
C783        C823   1.464       .  S
N784        C785   1.357       .  A
C785        N786   1.369       .  A
C785        C895   1.474       .  S
Zr787      O2037   2.459   1_455  S
Zr787      O1414   2.464   1_455  S
Zr787       O793   2.443       .  S
Zr787      O2043   2.387   1_455  S
Zr787       O796   2.385       .  S
Zr787       O798   2.416       .  S
O788        H844   0.991   1_455  S
O788        H852   0.991   1_545  S
O789      Zr2035   2.459       .  S
O789        C809   1.288       .  A
O790      Zr1411   2.464   1_565  S
O790        C811   1.287       .  A
O791       Zr801   2.418       .  S
O791        C810   1.281       .  A
O792       Zr800   2.426       .  S
O792        C811   1.285       .  A
O793        C810   1.285       .  A
O794       Zr802   2.407       .  S
O794        C809   1.279       .  A
O795      Zr2035   2.387       .  S
O795       Zr802   2.382       .  S
O796       Zr801   2.393       .  S
O796      Zr2050   2.377   1_455  S
O796        H831   0.967       .  S
O797      Zr2048   2.396   1_455  S
O797       Zr817   2.375       .  S
O797        H834   0.965       .  S
O798       Zr801   2.386       .  S
Zr799       O826   2.471       .  S
Zr799      O1438   2.449   1_455  S
Zr799       O805   2.390       .  S
Zr799      O2054   2.415   1_455  S
Zr799       O808   2.393       .  S
Zr799      O2072   2.442       .  S
Zr800       O813   2.417       .  S
Zr800      O2045   2.396       .  S
Zr800      O2055   2.390       .  S
Zr800       O819   2.438       .  S
Zr800       O812   2.435       .  S
Zr801       O827   2.419       .  S
Zr801       O805   2.380       .  S
Zr801       O808   2.387       .  S
Zr801       O803   2.435       .  S
Zr801       O825   2.434       .  S
Zr802      O2044   2.377       .  S
Zr802      O2053   2.376       .  S
Zr802       O806   2.397       .  S
Zr802       O828   2.436       .  S
Zr802       O829   2.436       .  S
Zr802       O804   2.434       .  S
O803        H840   0.990       .  S
O804        H835   0.989       .  S
O804        H849   0.990       .  S
O805      Zr2050   2.376   1_455  S
O806      Zr2047   2.415       .  S
O806        H832   0.966       .  S
O807      Zr2048   2.390   1_455  S
O807       Zr817   2.374       .  S
O808        H833   0.968       .  S
C809        C855   1.474       .  S
O812        H848   0.990       .  S
O813        C815   1.282       .  A
O814      Zr1423   2.449   1_565  S
O814        C815   1.285       .  A
O816       Zr817   2.439       .  S
O816        H845   0.990       .  S
Zr817       O822   2.404       .  S
Zr817       O820   2.439       .  S
Zr817       O821   2.438       .  S
O818        C823   1.285       .  A
O819        H836   0.990       .  S
O819        H851   0.990       .  S
O820        H837   0.990       .  S
O821        H841   0.990       .  S
O821        H850   0.990       .  S
O822        C823   1.278       .  A
O824      Zr2047   2.442       .  S
O824        H843   0.990       .  S
O824        H847   0.990       .  S
O825        H839   0.990       .  S
O825        H846   0.990       .  S
O826        C830   1.290       .  A
O827        C830   1.284       .  A
O828        H838   0.990       .  S
O829        H842   0.990       .  S
C830        C861   1.481       .  S
C853        N854   1.363       .  A
C853        N858   1.370       .  A
N854        C855   1.350       .  A
C855        N856   1.352       .  A
N856        C857   1.358       .  A
C857        N858   1.369       .  A
C857        C914   1.481       .  S
C859        N860   1.371       .  A
C859        N864   1.363       .  A
N860        C861   1.369       .  A
C861        N862   1.358       .  A
N862        C863   1.352       .  A
C863        N864   1.350       .  A
C863        C893   1.473       .  S
C865        N866   1.359       .  A
C865        N870   1.356       .  A
C865        C899   1.463       .  S
N866        C867   1.360       .  A
C867        N868   1.355       .  A
N868        C869   1.352       .  A
C869        N870   1.358       .  A
Zr871       O873   2.458       .  S
Zr871       O874   2.465       .  S
Zr871       O877   2.443       .  S
Zr871       O879   2.386       .  S
Zr871       O880   2.386       .  S
Zr871       O881   2.414       .  S
Zr871       O882   2.416       .  S
Zr871       O872   2.442       .  S
O872        H928   0.991       .  S
O872        H936   0.991       .  S
O873        C893   1.288       .  A
O874        C895   1.287       .  A
O875       Zr885   2.419       .  S
O875        C894   1.281       .  A
O876       Zr884   2.425       .  S
O876        C895   1.284       .  A
O877        C894   1.285       .  A
O878       Zr886   2.407       .  S
O878        C893   1.279       .  A
O879       Zr884   2.392       .  S
O879       Zr886   2.382       .  S
O880       Zr885   2.393       .  S
O880       Zr886   2.377       .  S
O880        H915   0.967       .  S
O881       Zr884   2.396       .  S
O881       Zr901   2.376       .  S
O881        H918   0.965       .  S
O882       Zr885   2.386       .  S
O882       Zr901   2.399       .  S
Zr883       O902   2.439       .  S
Zr883       O910   2.471       .  S
Zr883       O898   2.449       .  S
Zr883       O889   2.391       .  S
Zr883       O890   2.414       .  S
Zr883       O891   2.383       .  S
Zr883       O892   2.393       .  S
Zr883       O908   2.442       .  S
Zr884       O897   2.417       .  S
Zr884       O890   2.401       .  S
Zr884       O891   2.390       .  S
Zr884       O903   2.438       .  S
Zr884       O896   2.435       .  S
Zr885       O911   2.419       .  S
Zr885       O889   2.380       .  S
Zr885       O892   2.387       .  S
Zr885       O887   2.435       .  S
Zr885       O909   2.435       .  S
Zr886       O889   2.375       .  S
Zr886       O890   2.397       .  S
Zr886       O912   2.436       .  S
Zr886       O913   2.435       .  S
Zr886       O888   2.433       .  S
O887        H924   0.990       .  S
O888        H919   0.989       .  S
O888        H933   0.990       .  S
O890        H916   0.966       .  S
O891       Zr901   2.374       .  S
O892       Zr901   2.384       .  S
O892        H917   0.968       .  S
O896        H932   0.990       .  S
O897        C899   1.282       .  A
O898        C899   1.285       .  A
O900       Zr901   2.439       .  S
O900        H929   0.990       .  S
Zr901       O906   2.405       .  S
Zr901       O904   2.439       .  S
Zr901       O905   2.438       .  S
O902        C907   1.285       .  A
O903        H920   0.990       .  S
O903        H935   0.990       .  S
O904        H921   0.990       .  S
O905        H925   0.990       .  S
O905        H934   0.990       .  S
O906        C907   1.278       .  A
O908        H927   0.990       .  S
O908        H931   0.990       .  S
O909        H923   0.990       .  S
O909        H930   0.990       .  S
O910        C914   1.289       .  A
O911        C914   1.284       .  A
O912        H922   0.990       .  S
O913        H926   0.990       .  S
C937        N938   1.356       .  A
C937        N942   1.359       .  A
C937       C1127   1.463       .  S
N938        C939   1.358       .  A
C939        N940   1.352       .  A
C939       C1064   1.462       .  S
N940        C941   1.355       .  A
C941        N942   1.360       .  A
C941        C977   1.451       .  S
C943        N944   1.358       .  A
C943        N948   1.369       .  A
C943        C985   1.476       .  S
N944        C945   1.347       .  A
C945        N946   1.351       .  A
C945       C1219   1.464       .  S
N946        C947   1.357       .  A
C947        N948   1.370       .  A
C947       C1123   1.474       .  S
Zr949      O1888   2.451   1_455  S
Zr949       O955   2.453       .  S
Zr949       O958   2.387       .  S
Zr949      O2207   2.430   1_455  S
Zr949       O960   2.416       .  S
Zr949      O2198   2.437       .  S
O950      Zr2197   2.437       .  S
O950       H1006   0.990       .  S
O950       H1014   0.990       .  S
O951        C971   1.288       .  A
O952      Zr1885   2.451       .  S
O952        C973   1.284       .  A
O953       Zr963   2.397       .  S
O953        C972   1.277       .  A
O954       Zr962   2.411       .  S
O954        C973   1.274       .  A
O955        C972   1.287       .  A
O956       Zr964   2.402       .  S
O956        C971   1.279       .  A
O957      Zr2210   2.392   1_455  S
O957       Zr964   2.374       .  S
O958       Zr963   2.393       .  S
O958        H993   0.967       .  S
O959      Zr2197   2.430       .  S
O959       Zr979   2.381       .  S
O959        H996   0.964       .  S
O960       Zr963   2.384       .  S
O960      Zr2227   2.400   1_455  S
Zr961      O2228   2.454   1_455  S
Zr961       O988   2.466       .  S
Zr961      O1912   2.455   1_455  S
Zr961       O967   2.404       .  S
Zr961      O2217   2.391   1_455  S
Zr961       O970   2.394       .  S
Zr962       O975   2.396       .  S
Zr962      O2205   2.392       .  S
Zr962      O2216   2.398       .  S
Zr962       O981   2.437       .  S
Zr962       O974   2.435       .  S
Zr963       O989   2.394       .  S
Zr963       O967   2.395       .  S
Zr963       O970   2.392       .  S
Zr963       O965   2.437       .  S
Zr963       O987   2.439       .  S
Zr964       O968   2.388       .  S
Zr964       O990   2.435       .  S
Zr964       O991   2.436       .  S
Zr964       O966   2.439       .  S
O965       H1002   0.990       .  S
O966        H997   0.991       .  S
O966       H1011   0.990       .  S
O968      Zr2210   2.398   1_455  S
O968        H994   0.965       .  S
O969      Zr2209   2.391       .  S
O969       Zr979   2.377       .  S
O970      Zr2227   2.367   1_455  S
O970        H995   0.966       .  S
C971       C1171   1.479       .  S
C972       C1091   1.456       .  S
C973       C1017   1.468       .  S
O974       H1010   0.990       .  S
O975        C977   1.277       .  A
O976      Zr1897   2.455   1_556  S
O976        C977   1.287       .  A
O978       Zr979   2.441       .  S
O978       H1007   0.991       .  S
Zr979       O984   2.411       .  S
Zr979      O2208   2.400       .  S
Zr979      O2218   2.367       .  S
Zr979       O982   2.438       .  S
Zr979       O983   2.439       .  S
O980      Zr2209   2.454       .  S
O980        C985   1.285       .  A
O981        H998   0.990       .  S
O981       H1013   0.990       .  S
O982        H999   0.990       .  S
O983       H1003   0.990       .  S
O983       H1012   0.990       .  S
O984        C985   1.282       .  A
O986       H1005   0.990       .  S
O986       H1009   0.991       .  S
O987       H1001   0.990       .  S
O987       H1008   0.990       .  S
O988        C992   1.288       .  A
O989        C992   1.271       .  A
O990       H1000   0.990       .  S
O991       H1004   0.990       .  S
C992       C1181   1.462       .  S
C1015      N1016   1.358       .  A
C1015      N1020   1.359       .  A
C1015      C1206   1.463       .  S
N1016      C1017   1.358       .  A
C1017      N1018   1.356       .  A
N1018      C1019   1.357       .  A
C1019      N1020   1.358       .  A
C1019      C1044   1.456       .  S
Zr1021     O1023   2.466       .  S
Zr1021     O1024   2.449       .  S
Zr1021     O1029   2.389       .  S
Zr1021     O1030   2.387       .  S
Zr1021     O1031   2.431       .  S
O1022      H1078   0.990       .  S
O1022      H1086   0.990       .  S
O1023      C1043   1.288       .  A
O1024      C1045   1.283       .  A
O1025     Zr1035   2.398       .  S
O1025      C1044   1.277       .  A
O1026     Zr1034   2.412       .  S
O1026      C1045   1.274       .  A
O1027      C1044   1.287       .  A
O1028     Zr1036   2.401       .  S
O1028      C1043   1.279       .  A
O1029     Zr1034   2.392       .  S
O1029     Zr1036   2.374       .  S
O1030     Zr1036   2.374       .  S
O1030      H1065   0.967       .  S
O1031     Zr1034   2.393       .  S
O1031      H1068   0.964       .  S
O1032     Zr1035   2.384       .  S
O1032     Zr1051   2.399       .  S
Zr1033     O1048   2.456       .  S
Zr1033     O1039   2.404       .  S
Zr1033     O1040   2.417       .  S
Zr1033     O1041   2.391       .  S
Zr1033     O1058   2.439       .  S
Zr1034     O1053   2.437       .  S
Zr1035     O1037   2.437       .  S
Zr1035     O1059   2.440       .  S
Zr1036     O1062   2.435       .  S
Zr1036     O1038   2.439       .  S
O1037      H1074   0.990       .  S
O1038      H1069   0.991       .  S
O1038      H1083   0.990       .  S
O1040      H1066   0.965       .  S
O1042      H1067   0.966       .  S
C1043      C1165   1.479       .  S
C1045      C1089   1.467       .  S
O1047      C1049   1.277       .  A
O1048      C1049   1.287       .  A
C1049      C1179   1.451       .  S
O1050     Zr1051   2.440       .  S
O1050      H1079   0.991       .  S
Zr1051     O1054   2.437       .  S
Zr1051     O1055   2.439       .  S
O1052      C1057   1.285       .  A
O1053      H1085   0.990       .  S
O1054      H1071   0.990       .  S
O1055      H1075   0.990       .  S
O1055      H1084   0.990       .  S
O1056      C1057   1.282       .  A
C1057      C1093   1.475       .  S
O1058      H1077   0.990       .  S
O1058      H1081   0.991       .  S
O1059      H1073   0.990       .  S
O1059      H1080   0.990       .  S
O1060      C1064   1.288       .  A
O1061      C1064   1.271       .  A
O1062      H1072   0.990       .  S
O1063      H1076   0.990       .  S
C1087      N1088   1.358       .  A
C1087      N1092   1.358       .  A
C1087      C1122   1.463       .  S
N1088      C1089   1.358       .  A
C1089      N1090   1.356       .  A
N1090      C1091   1.357       .  A
C1091      N1092   1.358       .  A
C1093      N1094   1.358       .  A
C1093      N1098   1.369       .  A
N1094      C1095   1.347       .  A
C1095      N1096   1.351       .  A
C1095      C1135   1.464       .  S
N1096      C1097   1.357       .  A
C1097      N1098   1.369       .  A
C1097      C1207   1.474       .  S
Zr1099     O2349   2.459   1_455  S
Zr1099     O1726   2.464   1_455  S
Zr1099     O1105   2.443       .  S
Zr1099     O2355   2.387   1_455  S
Zr1099     O1108   2.385       .  S
Zr1099     O1110   2.416       .  S
O1100      H1156   0.991   1_455  S
O1100      H1164   0.991   1_545  S
O1101     Zr2347   2.459       .  S
O1101      C1121   1.288       .  A
O1102     Zr1723   2.464   1_565  S
O1102      C1123   1.287       .  A
O1103     Zr1113   2.418       .  S
O1103      C1122   1.281       .  A
O1104     Zr1112   2.426       .  S
O1104      C1123   1.285       .  A
O1105      C1122   1.285       .  A
O1106     Zr1114   2.407       .  S
O1106      C1121   1.279       .  A
O1107     Zr2347   2.387       .  S
O1107     Zr1114   2.382       .  S
O1108     Zr1113   2.393       .  S
O1108     Zr2362   2.377   1_455  S
O1108      H1143   0.967       .  S
O1109     Zr2360   2.396   1_455  S
O1109     Zr1129   2.375       .  S
O1109      H1146   0.965       .  S
O1110     Zr1113   2.386       .  S
Zr1111     O1138   2.471       .  S
Zr1111     O1750   2.449   1_455  S
Zr1111     O1117   2.390       .  S
Zr1111     O2366   2.415   1_455  S
Zr1111     O1120   2.393       .  S
Zr1111     O2384   2.442       .  S
Zr1112     O1125   2.417       .  S
Zr1112     O2357   2.396       .  S
Zr1112     O2367   2.390       .  S
Zr1112     O1131   2.438       .  S
Zr1112     O1124   2.435       .  S
Zr1113     O1139   2.419       .  S
Zr1113     O1117   2.380       .  S
Zr1113     O1120   2.387       .  S
Zr1113     O1115   2.435       .  S
Zr1113     O1137   2.434       .  S
Zr1114     O2356   2.377       .  S
Zr1114     O2365   2.376       .  S
Zr1114     O1118   2.397       .  S
Zr1114     O1140   2.436       .  S
Zr1114     O1141   2.436       .  S
Zr1114     O1116   2.434       .  S
O1115      H1152   0.990       .  S
O1116      H1147   0.989       .  S
O1116      H1161   0.990       .  S
O1117     Zr2362   2.376   1_455  S
O1118     Zr2359   2.415       .  S
O1118      H1144   0.966       .  S
O1119     Zr2360   2.390   1_455  S
O1119     Zr1129   2.374       .  S
O1120      H1145   0.968       .  S
C1121      C1167   1.474       .  S
O1124      H1160   0.990       .  S
O1125      C1127   1.282       .  A
O1126     Zr1735   2.449   1_565  S
O1126      C1127   1.285       .  A
O1128     Zr1129   2.439       .  S
O1128      H1157   0.990       .  S
Zr1129     O1134   2.404       .  S
Zr1129     O1132   2.439       .  S
Zr1129     O1133   2.438       .  S
O1130      C1135   1.285       .  A
O1131      H1148   0.990       .  S
O1131      H1163   0.990       .  S
O1132      H1149   0.990       .  S
O1133      H1153   0.990       .  S
O1133      H1162   0.990       .  S
O1134      C1135   1.278       .  A
O1136     Zr2359   2.442       .  S
O1136      H1155   0.990       .  S
O1136      H1159   0.990       .  S
O1137      H1151   0.990       .  S
O1137      H1158   0.990       .  S
O1138      C1142   1.290       .  A
O1139      C1142   1.284       .  A
O1140      H1150   0.990       .  S
O1141      H1154   0.990       .  S
C1142      C1173   1.481       .  S
C1165      N1166   1.363       .  A
C1165      N1170   1.370       .  A
N1166      C1167   1.350       .  A
C1167      N1168   1.352       .  A
N1168      C1169   1.358       .  A
C1169      N1170   1.369       .  A
C1169      C1226   1.481       .  S
C1171      N1172   1.371       .  A
C1171      N1176   1.363       .  A
N1172      C1173   1.369       .  A
C1173      N1174   1.358       .  A
N1174      C1175   1.352       .  A
C1175      N1176   1.350       .  A
C1175      C1205   1.473       .  S
C1177      N1178   1.359       .  A
C1177      N1182   1.356       .  A
C1177      C1211   1.463       .  S
N1178      C1179   1.360       .  A
C1179      N1180   1.355       .  A
N1180      C1181   1.352       .  A
C1181      N1182   1.358       .  A
Zr1183     O1185   2.458       .  S
Zr1183     O1186   2.465       .  S
Zr1183     O1189   2.443       .  S
Zr1183     O1191   2.386       .  S
Zr1183     O1192   2.386       .  S
Zr1183     O1193   2.414       .  S
Zr1183     O1194   2.416       .  S
Zr1183     O1184   2.442       .  S
O1184      H1240   0.991       .  S
O1184      H1248   0.991       .  S
O1185      C1205   1.288       .  A
O1186      C1207   1.287       .  A
O1187     Zr1197   2.419       .  S
O1187      C1206   1.281       .  A
O1188     Zr1196   2.425       .  S
O1188      C1207   1.284       .  A
O1189      C1206   1.285       .  A
O1190     Zr1198   2.407       .  S
O1190      C1205   1.279       .  A
O1191     Zr1196   2.392       .  S
O1191     Zr1198   2.382       .  S
O1192     Zr1197   2.393       .  S
O1192     Zr1198   2.377       .  S
O1192      H1227   0.967       .  S
O1193     Zr1196   2.396       .  S
O1193     Zr1213   2.376       .  S
O1193      H1230   0.965       .  S
O1194     Zr1197   2.386       .  S
O1194     Zr1213   2.399       .  S
Zr1195     O1214   2.439       .  S
Zr1195     O1222   2.471       .  S
Zr1195     O1210   2.449       .  S
Zr1195     O1201   2.391       .  S
Zr1195     O1202   2.414       .  S
Zr1195     O1203   2.383       .  S
Zr1195     O1204   2.393       .  S
Zr1195     O1220   2.442       .  S
Zr1196     O1209   2.417       .  S
Zr1196     O1202   2.401       .  S
Zr1196     O1203   2.390       .  S
Zr1196     O1215   2.438       .  S
Zr1196     O1208   2.435       .  S
Zr1197     O1223   2.419       .  S
Zr1197     O1201   2.380       .  S
Zr1197     O1204   2.387       .  S
Zr1197     O1199   2.435       .  S
Zr1197     O1221   2.435       .  S
Zr1198     O1201   2.375       .  S
Zr1198     O1202   2.397       .  S
Zr1198     O1224   2.436       .  S
Zr1198     O1225   2.435       .  S
Zr1198     O1200   2.433       .  S
O1199      H1236   0.990       .  S
O1200      H1231   0.989       .  S
O1200      H1245   0.990       .  S
O1202      H1228   0.966       .  S
O1203     Zr1213   2.374       .  S
O1204     Zr1213   2.384       .  S
O1204      H1229   0.968       .  S
O1208      H1244   0.990       .  S
O1209      C1211   1.282       .  A
O1210      C1211   1.285       .  A
O1212     Zr1213   2.439       .  S
O1212      H1241   0.990       .  S
Zr1213     O1218   2.405       .  S
Zr1213     O1216   2.439       .  S
Zr1213     O1217   2.438       .  S
O1214      C1219   1.285       .  A
O1215      H1232   0.990       .  S
O1215      H1247   0.990       .  S
O1216      H1233   0.990       .  S
O1217      H1237   0.990       .  S
O1217      H1246   0.990       .  S
O1218      C1219   1.278       .  A
O1220      H1239   0.990       .  S
O1220      H1243   0.990       .  S
O1221      H1235   0.990       .  S
O1221      H1242   0.990       .  S
O1222      C1226   1.289       .  A
O1223      C1226   1.284       .  A
O1224      H1234   0.990       .  S
O1225      H1238   0.990       .  S
C1249      N1250   1.356       .  A
C1249      N1254   1.359       .  A
C1249      C1439   1.463       .  S
N1250      C1251   1.358       .  A
C1251      N1252   1.352       .  A
C1251      C1376   1.462       .  S
N1252      C1253   1.355       .  A
C1253      N1254   1.360       .  A
C1253      C1289   1.451       .  S
C1255      N1256   1.358       .  A
C1255      N1260   1.369       .  A
C1255      C1297   1.476       .  S
N1256      C1257   1.347       .  A
C1257      N1258   1.351       .  A
C1257      C1531   1.464       .  S
N1258      C1259   1.357       .  A
C1259      N1260   1.370       .  A
C1259      C1435   1.474       .  S
Zr1261     O1575   2.466       .  S
Zr1261     O1267   2.453   1_556  S
Zr1261     O1581   2.388       .  S
Zr1261     O1270   2.387   1_556  S
Zr1261     O1272   2.416   1_556  S
O1262      H1318   0.990   1_554  S
O1262      H1326   0.990   1_455  S
O1263     Zr1573   2.466       .  S
O1263      C1283   1.288       .  A
O1264      C1285   1.284       .  A
O1265     Zr1275   2.397       .  S
O1265      C1284   1.277       .  A
O1266     Zr1274   2.411       .  S
O1266      C1285   1.274       .  A
O1267      C1284   1.287       .  A
O1268     Zr1276   2.402       .  S
O1268      C1283   1.279       .  A
O1269     Zr1573   2.388       .  S
O1269     Zr1276   2.374       .  S
O1270     Zr1275   2.393       .  S
O1270     Zr1588   2.374   1_554  S
O1270      H1305   0.967       .  S
O1271     Zr1586   2.393   1_554  S
O1271     Zr1291   2.381       .  S
O1271      H1308   0.964       .  S
O1272     Zr1275   2.384       .  S
Zr1273     O1300   2.466       .  S
Zr1273     O1279   2.404       .  S
Zr1273     O1592   2.417   1_554  S
Zr1273     O1282   2.394       .  S
Zr1273     O1610   2.439       .  S
Zr1274     O1287   2.396       .  S
Zr1274     O1583   2.393       .  S
Zr1274     O1593   2.391       .  S
Zr1274     O1293   2.437       .  S
Zr1274     O1286   2.435       .  S
Zr1275     O1301   2.394       .  S
Zr1275     O1279   2.395       .  S
Zr1275     O1282   2.392       .  S
Zr1275     O1277   2.437       .  S
Zr1275     O1299   2.439       .  S
Zr1276     O1582   2.374       .  S
Zr1276     O1591   2.383       .  S
Zr1276     O1280   2.388       .  S
Zr1276     O1302   2.435       .  S
Zr1276     O1303   2.436       .  S
Zr1276     O1278   2.439       .  S
O1277      H1314   0.990       .  S
O1278      H1309   0.991       .  S
O1278      H1323   0.990       .  S
O1279     Zr1588   2.383   1_554  S
O1280     Zr1585   2.417       .  S
O1280      H1306   0.965       .  S
O1281     Zr1586   2.391   1_554  S
O1281     Zr1291   2.377       .  S
O1282      H1307   0.966       .  S
C1283      C1483   1.479       .  S
C1284      C1403   1.456       .  S
C1285      C1329   1.468       .  S
O1286      H1322   0.990       .  S
O1287      C1289   1.277       .  A
O1288      C1289   1.287       .  A
O1290     Zr1291   2.441       .  S
O1290      H1319   0.991       .  S
Zr1291     O1296   2.411       .  S
Zr1291     O1294   2.438       .  S
Zr1291     O1295   2.439       .  S
O1292      C1297   1.285       .  A
O1293      H1310   0.990       .  S
O1293      H1325   0.990       .  S
O1294      H1311   0.990       .  S
O1295      H1315   0.990       .  S
O1295      H1324   0.990       .  S
O1296      C1297   1.282       .  A
O1298     Zr1585   2.439       .  S
O1298      H1317   0.990       .  S
O1298      H1321   0.991       .  S
O1299      H1313   0.990       .  S
O1299      H1320   0.990       .  S
O1300      C1304   1.288       .  A
O1301      C1304   1.271       .  A
O1302      H1312   0.990       .  S
O1303      H1316   0.990       .  S
C1304      C1493   1.462       .  S
C1327      N1328   1.358       .  A
C1327      N1332   1.359       .  A
C1327      C1518   1.463       .  S
N1328      C1329   1.358       .  A
C1329      N1330   1.356       .  A
N1330      C1331   1.357       .  A
C1331      N1332   1.358       .  A
C1331      C1356   1.456       .  S
Zr1333     O1335   2.466       .  S
Zr1333     O1336   2.449       .  S
Zr1333     O1651   2.453   1_554  S
Zr1333     O1341   2.389       .  S
Zr1333     O1342   2.387       .  S
Zr1333     O1343   2.431       .  S
Zr1333     O1656   2.415   1_554  S
Zr1333     O1646   2.438       .  S
O1334     Zr1645   2.438       .  S
O1334      H1390   0.990       .  S
O1334      H1398   0.990       .  S
O1335      C1355   1.288       .  A
O1336      C1357   1.283       .  A
O1337     Zr1347   2.398       .  S
O1337      C1356   1.277       .  A
O1338     Zr1346   2.412       .  S
O1338      C1357   1.274       .  A
O1339     Zr1645   2.453       .  S
O1339      C1356   1.287       .  A
O1340     Zr1348   2.401       .  S
O1340      C1355   1.279       .  A
O1341     Zr1346   2.392       .  S
O1341     Zr1348   2.374       .  S
O1342     Zr1659   2.393   1_554  S
O1342     Zr1348   2.374       .  S
O1342      H1377   0.967       .  S
O1343     Zr1346   2.393       .  S
O1343     Zr1675   2.381   1_554  S
O1343      H1380   0.964       .  S
O1344     Zr1645   2.415       .  S
O1344     Zr1347   2.384       .  S
O1344     Zr1363   2.399       .  S
Zr1345     O1676   2.455       .  S
Zr1345     O1684   2.466       .  S
Zr1345     O1360   2.456   1_556  S
Zr1345     O1351   2.404   1_556  S
Zr1345     O1352   2.417   1_556  S
Zr1345     O1353   2.391   1_556  S
Zr1345     O1666   2.393       .  S
Zr1345     O1370   2.439       .  S
Zr1346     O1983   2.396   1_545  S
Zr1346     O1976   2.399   1_545  S
Zr1346     O1977   2.391   1_545  S
Zr1346     O1365   2.437       .  S
Zr1346     O1982   2.435   1_545  S
Zr1347     O1997   2.394   1_545  S
Zr1347     O1654   2.393       .  S
Zr1347     O2287   2.396   1_545  S
Zr1347     O1978   2.392   1_545  S
Zr1347     O1349   2.437       .  S
Zr1347     O1371   2.440       .  S
Zr1348     O1975   2.383   1_545  S
Zr1348     O1976   2.389   1_545  S
Zr1348     O1374   2.435       .  S
Zr1348     O1999   2.436   1_545  S
Zr1348     O1350   2.439   1_545  S
O1349      H1386   0.990       .  S
O1350      H1381   0.991   1_565  S
O1350      H1395   0.990   1_565  S
O1351     Zr2283   2.396   1_554  S
O1351     Zr1972   2.383       .  S
O1352     Zr1970   2.399       .  S
O1352     Zr1972   2.389       .  S
O1352      H1378   0.965       .  S
O1353     Zr1970   2.391       .  S
O1353     Zr2299   2.377   1_554  S
O1354     Zr1657   2.393       .  S
O1354     Zr1971   2.392       .  S
O1354     Zr1987   2.367       .  S
O1354      H1379   0.966       .  S
C1355      C1477   1.479       .  S
C1357      C1401   1.467       .  S
O1358     Zr1970   2.435       .  S
O1358      H2018   0.990       .  S
O1359     Zr1970   2.396       .  S
O1359      C1361   1.277       .  A
O1360      C1361   1.287       .  A
C1361      C1491   1.451       .  S
O1362     Zr1363   2.440       .  S
O1362      H1391   0.991       .  S
Zr1363     O1992   2.410   1_545  S
Zr1363     O1655   2.381       .  S
Zr1363     O2289   2.377   1_545  S
Zr1363     O1978   2.367   1_545  S
Zr1363     O1366   2.437       .  S
Zr1363     O1367   2.439       .  S
O1364     Zr1657   2.455       .  S
O1364      C1369   1.285       .  A
O1365      H2006   0.990   1_545  S
O1365      H1397   0.990       .  S
O1366      H1383   0.990       .  S
O1367      H1387   0.990       .  S
O1367      H1396   0.990       .  S
O1368     Zr1987   2.410       .  S
O1368      C1369   1.282       .  A
C1369      C1405   1.475       .  S
O1370      H1389   0.990       .  S
O1370      H1393   0.991   1_556  S
O1371      H1385   0.990       .  S
O1371      H1392   0.990       .  S
O1372     Zr1657   2.466       .  S
O1372      C1376   1.288       .  A
O1373     Zr1971   2.394       .  S
O1373      C1376   1.271       .  A
O1374      H1384   0.990       .  S
O1375     Zr1972   2.436       .  S
O1375      H1388   0.990       .  S
H1382      O1989   0.990       .  S
H1394      O1982   0.990       .  S
C1399      N1400   1.358       .  A
C1399      N1404   1.358       .  A
C1399      C1434   1.463       .  S
N1400      C1401   1.358       .  A
C1401      N1402   1.356       .  A
N1402      C1403   1.357       .  A
C1403      N1404   1.358       .  A
C1405      N1406   1.358       .  A
C1405      N1410   1.369       .  A
N1406      C1407   1.347       .  A
C1407      N1408   1.351       .  A
C1407      C1447   1.464       .  S
N1408      C1409   1.357       .  A
C1409      N1410   1.369       .  A
C1409      C1519   1.474       .  S
Zr1411     O1417   2.443       .  S
Zr1411     O1420   2.385       .  S
Zr1411     O2045   2.413   1_545  S
Zr1411     O1422   2.416       .  S
Zr1411     O2036   2.442       .  S
O1412     Zr2035   2.442       .  S
O1412      H1468   0.991       .  S
O1412      H1476   0.991       .  S
O1413      C1433   1.288       .  A
O1414      C1435   1.287       .  A
O1415     Zr1425   2.418       .  S
O1415      C1434   1.281       .  A
O1416     Zr1424   2.426       .  S
O1416      C1435   1.285       .  A
O1417      C1434   1.285       .  A
O1418     Zr1426   2.407       .  S
O1418      C1433   1.279       .  A
O1419     Zr2048   2.392   1_545  S
O1419     Zr1426   2.382       .  S
O1420     Zr1425   2.393       .  S
O1420      H1455   0.967       .  S
O1421     Zr2035   2.413       .  S
O1421     Zr1441   2.375       .  S
O1421      H1458   0.965       .  S
O1422     Zr1425   2.386       .  S
O1422     Zr2065   2.399   1_545  S
Zr1423     O2066   2.440   1_545  S
Zr1423     O1450   2.471       .  S
Zr1423     O1429   2.390       .  S
Zr1423     O2055   2.382   1_545  S
Zr1423     O1432   2.393       .  S
Zr1424     O1437   2.417       .  S
Zr1424     O2043   2.392       .  S
Zr1424     O2054   2.401       .  S
Zr1424     O1443   2.438       .  S
Zr1424     O1436   2.435       .  S
Zr1425     O1451   2.419       .  S
Zr1425     O1429   2.380       .  S
Zr1425     O1432   2.387       .  S
Zr1425     O1427   2.435       .  S
Zr1425     O1449   2.434       .  S
Zr1426     O1430   2.397       .  S
Zr1426     O1452   2.436       .  S
Zr1426     O1453   2.436       .  S
Zr1426     O1428   2.434       .  S
O1427      H1464   0.990       .  S
O1428      H1459   0.989       .  S
O1428      H1473   0.990       .  S
O1430     Zr2048   2.401   1_545  S
O1430      H1456   0.966       .  S
O1431     Zr2047   2.382       .  S
O1431     Zr1441   2.374       .  S
O1432     Zr2065   2.384   1_545  S
O1432      H1457   0.968       .  S
C1433      C1479   1.474       .  S
O1436      H1472   0.990       .  S
O1437      C1439   1.282       .  A
O1438      C1439   1.285       .  A
O1440     Zr1441   2.439       .  S
O1440      H1469   0.990       .  S
Zr1441     O1446   2.404       .  S
Zr1441     O2046   2.399       .  S
Zr1441     O2056   2.384       .  S
Zr1441     O1444   2.439       .  S
Zr1441     O1445   2.438       .  S
O1442     Zr2047   2.440       .  S
O1442      C1447   1.285       .  A
O1443      H1460   0.990       .  S
O1443      H1475   0.990       .  S
O1444      H1461   0.990       .  S
O1445      H1465   0.990       .  S
O1445      H1474   0.990       .  S
O1446      C1447   1.278       .  A
O1448      H1467   0.990       .  S
O1448      H1471   0.990       .  S
O1449      H1463   0.990       .  S
O1449      H1470   0.990       .  S
O1450      C1454   1.290       .  A
O1451      C1454   1.284       .  A
O1452      H1462   0.990       .  S
O1453      H1466   0.990       .  S
C1454      C1485   1.481       .  S
C1477      N1478   1.363       .  A
C1477      N1482   1.370       .  A
N1478      C1479   1.350       .  A
C1479      N1480   1.352       .  A
N1480      C1481   1.358       .  A
C1481      N1482   1.369       .  A
C1481      C1538   1.481       .  S
C1483      N1484   1.371       .  A
C1483      N1488   1.363       .  A
N1484      C1485   1.369       .  A
C1485      N1486   1.358       .  A
N1486      C1487   1.352       .  A
C1487      N1488   1.350       .  A
C1487      C1517   1.473       .  S
C1489      N1490   1.359       .  A
C1489      N1494   1.356       .  A
C1489      C1523   1.463       .  S
N1490      C1491   1.360       .  A
C1491      N1492   1.355       .  A
N1492      C1493   1.352       .  A
C1493      N1494   1.358       .  A
Zr1495     O1497   2.458       .  S
Zr1495     O1498   2.465       .  S
Zr1495     O1501   2.443       .  S
Zr1495     O1503   2.386       .  S
Zr1495     O1504   2.386       .  S
Zr1495     O1505   2.414       .  S
Zr1495     O1506   2.416       .  S
Zr1495     O1496   2.442       .  S
O1496      H1552   0.991       .  S
O1496      H1560   0.991       .  S
O1497      C1517   1.288       .  A
O1498      C1519   1.287       .  A
O1499     Zr1509   2.419       .  S
O1499      C1518   1.281       .  A
O1500     Zr1508   2.425       .  S
O1500      C1519   1.284       .  A
O1501      C1518   1.285       .  A
O1502     Zr1510   2.407       .  S
O1502      C1517   1.279       .  A
O1503     Zr1508   2.392       .  S
O1503     Zr1510   2.382       .  S
O1504     Zr1509   2.393       .  S
O1504     Zr1510   2.377       .  S
O1504      H1539   0.967       .  S
O1505     Zr1508   2.396       .  S
O1505     Zr1525   2.376       .  S
O1505      H1542   0.965       .  S
O1506     Zr1509   2.386       .  S
O1506     Zr1525   2.399       .  S
Zr1507     O1526   2.439       .  S
Zr1507     O1534   2.471       .  S
Zr1507     O1522   2.449       .  S
Zr1507     O1513   2.391       .  S
Zr1507     O1514   2.414       .  S
Zr1507     O1515   2.383       .  S
Zr1507     O1516   2.393       .  S
Zr1507     O1532   2.442       .  S
Zr1508     O1521   2.417       .  S
Zr1508     O1514   2.401       .  S
Zr1508     O1515   2.390       .  S
Zr1508     O1527   2.438       .  S
Zr1508     O1520   2.435       .  S
Zr1509     O1535   2.419       .  S
Zr1509     O1513   2.380       .  S
Zr1509     O1516   2.387       .  S
Zr1509     O1511   2.435       .  S
Zr1509     O1533   2.435       .  S
Zr1510     O1513   2.375       .  S
Zr1510     O1514   2.397       .  S
Zr1510     O1536   2.436       .  S
Zr1510     O1537   2.435       .  S
Zr1510     O1512   2.433       .  S
O1511      H1548   0.990       .  S
O1512      H1543   0.989       .  S
O1512      H1557   0.990       .  S
O1514      H1540   0.966       .  S
O1515     Zr1525   2.374       .  S
O1516     Zr1525   2.384       .  S
O1516      H1541   0.968       .  S
O1520      H1556   0.990       .  S
O1521      C1523   1.282       .  A
O1522      C1523   1.285       .  A
O1524     Zr1525   2.439       .  S
O1524      H1553   0.990       .  S
Zr1525     O1530   2.405       .  S
Zr1525     O1528   2.439       .  S
Zr1525     O1529   2.438       .  S
O1526      C1531   1.285       .  A
O1527      H1544   0.990       .  S
O1527      H1559   0.990       .  S
O1528      H1545   0.990       .  S
O1529      H1549   0.990       .  S
O1529      H1558   0.990       .  S
O1530      C1531   1.278       .  A
O1532      H1551   0.990       .  S
O1532      H1555   0.990       .  S
O1533      H1547   0.990       .  S
O1533      H1554   0.990       .  S
O1534      C1538   1.289       .  A
O1535      C1538   1.284       .  A
O1536      H1546   0.990       .  S
O1537      H1550   0.990       .  S
C1561      N1562   1.356       .  A
C1561      N1566   1.359       .  A
C1561      C1751   1.463       .  S
N1562      C1563   1.358       .  A
C1563      N1564   1.352       .  A
C1563      C1688   1.462       .  S
N1564      C1565   1.355       .  A
C1565      N1566   1.360       .  A
C1565      C1601   1.451       .  S
C1567      N1568   1.358       .  A
C1567      N1572   1.369       .  A
C1567      C1609   1.476       .  S
N1568      C1569   1.347       .  A
C1569      N1570   1.351       .  A
C1569      C1843   1.464       .  S
N1570      C1571   1.357       .  A
C1571      N1572   1.370       .  A
C1571      C1747   1.474       .  S
Zr1573     O1579   2.453       .  S
Zr1573     O1582   2.387       .  S
Zr1573     O1584   2.416       .  S
O1574      H1630   0.990       .  S
O1574      H1638   0.990   1_455  S
O1575      C1595   1.288       .  A
O1576      C1597   1.284       .  A
O1577     Zr1587   2.397       .  S
O1577      C1596   1.277       .  A
O1578     Zr1586   2.411       .  S
O1578      C1597   1.274       .  A
O1579      C1596   1.287       .  A
O1580     Zr1588   2.402       .  S
O1580      C1595   1.279       .  A
O1581     Zr1588   2.374       .  S
O1582     Zr1587   2.393       .  S
O1582      H1617   0.967       .  S
O1583     Zr1603   2.381       .  S
O1583      H1620   0.964       .  S
O1584     Zr1587   2.384       .  S
Zr1585     O1612   2.466       .  S
Zr1585     O1591   2.404       .  S
Zr1585     O1594   2.394       .  S
Zr1586     O1599   2.396       .  S
Zr1586     O1605   2.437       .  S
Zr1586     O1598   2.435       .  S
Zr1587     O1613   2.394       .  S
Zr1587     O1591   2.395       .  S
Zr1587     O1594   2.392       .  S
Zr1587     O1589   2.437       .  S
Zr1587     O1611   2.439       .  S
Zr1588     O1592   2.388       .  S
Zr1588     O1614   2.435       .  S
Zr1588     O1615   2.436       .  S
Zr1588     O1590   2.439       .  S
O1589      H1626   0.990       .  S
O1590      H1621   0.991       .  S
O1590      H1635   0.990       .  S
O1592      H1618   0.965       .  S
O1593     Zr1603   2.377       .  S
O1594      H1619   0.966       .  S
C1595      C1795   1.479       .  S
C1596      C1715   1.456       .  S
C1597      C1641   1.468       .  S
O1598      H1634   0.990       .  S
O1599      C1601   1.277       .  A
O1600      C1601   1.287       .  A
O1602     Zr1603   2.441       .  S
O1602      H1631   0.991       .  S
Zr1603     O1608   2.411       .  S
Zr1603     O1606   2.438       .  S
Zr1603     O1607   2.439       .  S
O1604      C1609   1.285       .  A
O1605      H1622   0.990       .  S
O1605      H1637   0.990       .  S
O1606      H1623   0.990       .  S
O1607      H1627   0.990       .  S
O1607      H1636   0.990       .  S
O1608      C1609   1.282       .  A
O1610      H1629   0.990       .  S
O1610      H1633   0.991       .  S
O1611      H1625   0.990       .  S
O1611      H1632   0.990       .  S
O1612      C1616   1.288       .  A
O1613      C1616   1.271       .  A
O1614      H1624   0.990       .  S
O1615      H1628   0.990       .  S
C1616      C1805   1.462       .  S
C1639      N1640   1.358       .  A
C1639      N1644   1.359       .  A
C1639      C1830   1.463       .  S
N1640      C1641   1.358       .  A
C1641      N1642   1.356       .  A
N1642      C1643   1.357       .  A
C1643      N1644   1.358       .  A
C1643      C1668   1.456       .  S
Zr1645     O1647   2.466       .  S
Zr1645     O1648   2.449       .  S
Zr1645     O1653   2.389       .  S
Zr1645     O1654   2.387       .  S
Zr1645     O1655   2.431       .  S
O1646      H1702   0.990       .  S
O1646      H1710   0.990       .  S
O1647      C1667   1.288       .  A
O1648      C1669   1.283       .  A
O1649     Zr1659   2.398       .  S
O1649      C1668   1.277       .  A
O1650     Zr1658   2.412       .  S
O1650      C1669   1.274       .  A
O1651      C1668   1.287       .  A
O1652     Zr1660   2.401       .  S
O1652      C1667   1.279       .  A
O1653     Zr1658   2.392       .  S
O1653     Zr1660   2.374       .  S
O1654     Zr1660   2.374       .  S
O1654      H1689   0.967       .  S
O1655     Zr1658   2.393       .  S
O1655      H1692   0.964       .  S
O1656     Zr1659   2.384       .  S
O1656     Zr1675   2.399       .  S
Zr1657     O1672   2.456       .  S
Zr1657     O1663   2.404       .  S
Zr1657     O1664   2.417       .  S
Zr1657     O1665   2.391       .  S
Zr1657     O1682   2.439       .  S
Zr1658     O2295   2.396   1_545  S
Zr1658     O2288   2.399   1_545  S
Zr1658     O2289   2.391   1_545  S
Zr1658     O1677   2.437       .  S
Zr1658     O2294   2.435   1_545  S
Zr1659     O2309   2.394   1_545  S
Zr1659     O1975   2.396   1_546  S
Zr1659     O2290   2.392   1_545  S
Zr1659     O1661   2.437       .  S
Zr1659     O1683   2.440       .  S
Zr1660     O2287   2.383   1_545  S
Zr1660     O2288   2.389   1_545  S
Zr1660     O1686   2.435       .  S
Zr1660     O2311   2.436   1_545  S
Zr1660     O1662   2.439   1_545  S
O1661      H1698   0.990       .  S
O1662      H1693   0.991   1_565  S
O1662      H1707   0.990   1_565  S
O1663     Zr1971   2.396       .  S
O1663     Zr2284   2.383       .  S
O1664     Zr2282   2.399       .  S
O1664     Zr2284   2.389       .  S
O1664      H1690   0.965       .  S
O1665     Zr2282   2.391       .  S
O1665     Zr1987   2.377       .  S
O1666     Zr2283   2.392       .  S
O1666     Zr2299   2.367       .  S
O1666      H1691   0.966       .  S
C1667      C1789   1.479       .  S
C1669      C1713   1.467       .  S
O1670     Zr2282   2.435       .  S
O1670      H2330   0.990       .  S
O1671     Zr2282   2.396       .  S
O1671      C1673   1.277       .  A
O1672      C1673   1.287       .  A
C1673      C1803   1.451       .  S
O1674     Zr1675   2.440       .  S
O1674      H1703   0.991       .  S
Zr1675     O2304   2.410   1_545  S
Zr1675     O1977   2.377   1_546  S
Zr1675     O2290   2.367   1_545  S
Zr1675     O1678   2.437       .  S
Zr1675     O1679   2.439       .  S
O1676      C1681   1.285       .  A
O1677      H2318   0.990   1_545  S
O1677      H1709   0.990       .  S
O1678      H1695   0.990       .  S
O1679      H1699   0.990       .  S
O1679      H1708   0.990       .  S
O1680     Zr2299   2.410       .  S
O1680      C1681   1.282       .  A
C1681      C1717   1.475       .  S
O1682      H1701   0.990       .  S
O1682      H1705   0.991       .  S
O1683      H1697   0.990       .  S
O1683      H1704   0.990       .  S
O1684      C1688   1.288       .  A
O1685     Zr2283   2.394       .  S
O1685      C1688   1.271       .  A
O1686      H1696   0.990       .  S
O1687     Zr2284   2.436       .  S
O1687      H1700   0.990       .  S
H1694      O2301   0.990       .  S
H1706      O2294   0.990       .  S
C1711      N1712   1.358       .  A
C1711      N1716   1.358       .  A
C1711      C1746   1.463       .  S
N1712      C1713   1.358       .  A
C1713      N1714   1.356       .  A
N1714      C1715   1.357       .  A
C1715      N1716   1.358       .  A
C1717      N1718   1.358       .  A
C1717      N1722   1.369       .  A
N1718      C1719   1.347       .  A
C1719      N1720   1.351       .  A
C1719      C1759   1.464       .  S
N1720      C1721   1.357       .  A
C1721      N1722   1.369       .  A
C1721      C1831   1.474       .  S
Zr1723     O1729   2.443       .  S
Zr1723     O1732   2.385       .  S
Zr1723     O2357   2.413   1_545  S
Zr1723     O1734   2.416       .  S
Zr1723     O2348   2.442       .  S
O1724     Zr2347   2.442       .  S
O1724      H1780   0.991       .  S
O1724      H1788   0.991       .  S
O1725      C1745   1.288       .  A
O1726      C1747   1.287       .  A
O1727     Zr1737   2.418       .  S
O1727      C1746   1.281       .  A
O1728     Zr1736   2.426       .  S
O1728      C1747   1.285       .  A
O1729      C1746   1.285       .  A
O1730     Zr1738   2.407       .  S
O1730      C1745   1.279       .  A
O1731     Zr2360   2.392   1_545  S
O1731     Zr1738   2.382       .  S
O1732     Zr1737   2.393       .  S
O1732      H1767   0.967       .  S
O1733     Zr2347   2.413       .  S
O1733     Zr1753   2.375       .  S
O1733      H1770   0.965       .  S
O1734     Zr1737   2.386       .  S
O1734     Zr2377   2.399   1_545  S
Zr1735     O2378   2.440   1_545  S
Zr1735     O1762   2.471       .  S
Zr1735     O1741   2.390       .  S
Zr1735     O2367   2.382   1_545  S
Zr1735     O1744   2.393       .  S
Zr1736     O1749   2.417       .  S
Zr1736     O2355   2.392       .  S
Zr1736     O2366   2.401       .  S
Zr1736     O1755   2.438       .  S
Zr1736     O1748   2.435       .  S
Zr1737     O1763   2.419       .  S
Zr1737     O1741   2.380       .  S
Zr1737     O1744   2.387       .  S
Zr1737     O1739   2.435       .  S
Zr1737     O1761   2.434       .  S
Zr1738     O1742   2.397       .  S
Zr1738     O1764   2.436       .  S
Zr1738     O1765   2.436       .  S
Zr1738     O1740   2.434       .  S
O1739      H1776   0.990       .  S
O1740      H1771   0.989       .  S
O1740      H1785   0.990       .  S
O1742     Zr2360   2.401   1_545  S
O1742      H1768   0.966       .  S
O1743     Zr2359   2.382       .  S
O1743     Zr1753   2.374       .  S
O1744     Zr2377   2.384   1_545  S
O1744      H1769   0.968       .  S
C1745      C1791   1.474       .  S
O1748      H1784   0.990       .  S
O1749      C1751   1.282       .  A
O1750      C1751   1.285       .  A
O1752     Zr1753   2.439       .  S
O1752      H1781   0.990       .  S
Zr1753     O1758   2.404       .  S
Zr1753     O2358   2.399       .  S
Zr1753     O2368   2.384       .  S
Zr1753     O1756   2.439       .  S
Zr1753     O1757   2.438       .  S
O1754     Zr2359   2.440       .  S
O1754      C1759   1.285       .  A
O1755      H1772   0.990       .  S
O1755      H1787   0.990       .  S
O1756      H1773   0.990       .  S
O1757      H1777   0.990       .  S
O1757      H1786   0.990       .  S
O1758      C1759   1.278       .  A
O1760      H1779   0.990       .  S
O1760      H1783   0.990       .  S
O1761      H1775   0.990       .  S
O1761      H1782   0.990       .  S
O1762      C1766   1.290       .  A
O1763      C1766   1.284       .  A
O1764      H1774   0.990       .  S
O1765      H1778   0.990       .  S
C1766      C1797   1.481       .  S
C1789      N1790   1.363       .  A
C1789      N1794   1.370       .  A
N1790      C1791   1.350       .  A
C1791      N1792   1.352       .  A
N1792      C1793   1.358       .  A
C1793      N1794   1.369       .  A
C1793      C1850   1.481       .  S
C1795      N1796   1.371       .  A
C1795      N1800   1.363       .  A
N1796      C1797   1.369       .  A
C1797      N1798   1.358       .  A
N1798      C1799   1.352       .  A
C1799      N1800   1.350       .  A
C1799      C1829   1.473       .  S
C1801      N1802   1.359       .  A
C1801      N1806   1.356       .  A
C1801      C1835   1.463       .  S
N1802      C1803   1.360       .  A
C1803      N1804   1.355       .  A
N1804      C1805   1.352       .  A
C1805      N1806   1.358       .  A
Zr1807     O1809   2.458       .  S
Zr1807     O1810   2.465       .  S
Zr1807     O1813   2.443       .  S
Zr1807     O1815   2.386       .  S
Zr1807     O1816   2.386       .  S
Zr1807     O1817   2.414       .  S
Zr1807     O1818   2.416       .  S
Zr1807     O1808   2.442       .  S
O1808      H1864   0.991       .  S
O1808      H1872   0.991       .  S
O1809      C1829   1.288       .  A
O1810      C1831   1.287       .  A
O1811     Zr1821   2.419       .  S
O1811      C1830   1.281       .  A
O1812     Zr1820   2.425       .  S
O1812      C1831   1.284       .  A
O1813      C1830   1.285       .  A
O1814     Zr1822   2.407       .  S
O1814      C1829   1.279       .  A
O1815     Zr1820   2.392       .  S
O1815     Zr1822   2.382       .  S
O1816     Zr1821   2.393       .  S
O1816     Zr1822   2.377       .  S
O1816      H1851   0.967       .  S
O1817     Zr1820   2.396       .  S
O1817     Zr1837   2.376       .  S
O1817      H1854   0.965       .  S
O1818     Zr1821   2.386       .  S
O1818     Zr1837   2.399       .  S
Zr1819     O1838   2.439       .  S
Zr1819     O1846   2.471       .  S
Zr1819     O1834   2.449       .  S
Zr1819     O1825   2.391       .  S
Zr1819     O1826   2.414       .  S
Zr1819     O1827   2.383       .  S
Zr1819     O1828   2.393       .  S
Zr1819     O1844   2.442       .  S
Zr1820     O1833   2.417       .  S
Zr1820     O1826   2.401       .  S
Zr1820     O1827   2.390       .  S
Zr1820     O1839   2.438       .  S
Zr1820     O1832   2.435       .  S
Zr1821     O1847   2.419       .  S
Zr1821     O1825   2.380       .  S
Zr1821     O1828   2.387       .  S
Zr1821     O1823   2.435       .  S
Zr1821     O1845   2.435       .  S
Zr1822     O1825   2.375       .  S
Zr1822     O1826   2.397       .  S
Zr1822     O1848   2.436       .  S
Zr1822     O1849   2.435       .  S
Zr1822     O1824   2.433       .  S
O1823      H1860   0.990       .  S
O1824      H1855   0.989       .  S
O1824      H1869   0.990       .  S
O1826      H1852   0.966       .  S
O1827     Zr1837   2.374       .  S
O1828     Zr1837   2.384       .  S
O1828      H1853   0.968       .  S
O1832      H1868   0.990       .  S
O1833      C1835   1.282       .  A
O1834      C1835   1.285       .  A
O1836     Zr1837   2.439       .  S
O1836      H1865   0.990       .  S
Zr1837     O1842   2.405       .  S
Zr1837     O1840   2.439       .  S
Zr1837     O1841   2.438       .  S
O1838      C1843   1.285       .  A
O1839      H1856   0.990       .  S
O1839      H1871   0.990       .  S
O1840      H1857   0.990       .  S
O1841      H1861   0.990       .  S
O1841      H1870   0.990       .  S
O1842      C1843   1.278       .  A
O1844      H1863   0.990       .  S
O1844      H1867   0.990       .  S
O1845      H1859   0.990       .  S
O1845      H1866   0.990       .  S
O1846      C1850   1.289       .  A
O1847      C1850   1.284       .  A
O1848      H1858   0.990       .  S
O1849      H1862   0.990       .  S
C1873      N1874   1.356       .  A
C1873      N1878   1.359       .  A
C1873      C2063   1.463       .  S
N1874      C1875   1.358       .  A
C1875      N1876   1.352       .  A
C1875      C2000   1.462       .  S
N1876      C1877   1.355       .  A
C1877      N1878   1.360       .  A
C1877      C1913   1.451       .  S
C1879      N1880   1.358       .  A
C1879      N1884   1.369       .  A
C1879      C1921   1.476       .  S
N1880      C1881   1.347       .  A
C1881      N1882   1.351       .  A
C1881      C2155   1.464       .  S
N1882      C1883   1.357       .  A
C1883      N1884   1.370       .  A
C1883      C2059   1.474       .  S
Zr1885     O2199   2.466       .  S
Zr1885     O1891   2.453   1_556  S
Zr1885     O2205   2.388       .  S
Zr1885     O1894   2.387   1_556  S
Zr1885     O1896   2.416   1_556  S
O1886      H1942   0.990   1_554  S
O1886      H1950   0.990   1_455  S
O1887     Zr2197   2.466       .  S
O1887      C1907   1.288       .  A
O1888      C1909   1.284       .  A
O1889     Zr1899   2.397       .  S
O1889      C1908   1.277       .  A
O1890     Zr1898   2.411       .  S
O1890      C1909   1.274       .  A
O1891      C1908   1.287       .  A
O1892     Zr1900   2.402       .  S
O1892      C1907   1.279       .  A
O1893     Zr2197   2.388       .  S
O1893     Zr1900   2.374       .  S
O1894     Zr1899   2.393       .  S
O1894     Zr2212   2.374   1_554  S
O1894      H1929   0.967       .  S
O1895     Zr2210   2.393   1_554  S
O1895     Zr1915   2.381       .  S
O1895      H1932   0.964       .  S
O1896     Zr1899   2.384       .  S
Zr1897     O1924   2.466       .  S
Zr1897     O1903   2.404       .  S
Zr1897     O2216   2.417   1_554  S
Zr1897     O1906   2.394       .  S
Zr1897     O2234   2.439       .  S
Zr1898     O1911   2.396       .  S
Zr1898     O2207   2.393       .  S
Zr1898     O2217   2.391       .  S
Zr1898     O1917   2.437       .  S
Zr1898     O1910   2.435       .  S
Zr1899     O1925   2.394       .  S
Zr1899     O1903   2.395       .  S
Zr1899     O1906   2.392       .  S
Zr1899     O1901   2.437       .  S
Zr1899     O1923   2.439       .  S
Zr1900     O2206   2.374       .  S
Zr1900     O2215   2.383       .  S
Zr1900     O1904   2.388       .  S
Zr1900     O1926   2.435       .  S
Zr1900     O1927   2.436       .  S
Zr1900     O1902   2.439       .  S
O1901      H1938   0.990       .  S
O1902      H1933   0.991       .  S
O1902      H1947   0.990       .  S
O1903     Zr2212   2.383   1_554  S
O1904     Zr2209   2.417       .  S
O1904      H1930   0.965       .  S
O1905     Zr2210   2.391   1_554  S
O1905     Zr1915   2.377       .  S
O1906      H1931   0.966       .  S
C1907      C2107   1.479       .  S
C1908      C2027   1.456       .  S
C1909      C1953   1.468       .  S
O1910      H1946   0.990       .  S
O1911      C1913   1.277       .  A
O1912      C1913   1.287       .  A
O1914     Zr1915   2.441       .  S
O1914      H1943   0.991       .  S
Zr1915     O1920   2.411       .  S
Zr1915     O1918   2.438       .  S
Zr1915     O1919   2.439       .  S
O1916      C1921   1.285       .  A
O1917      H1934   0.990       .  S
O1917      H1949   0.990       .  S
O1918      H1935   0.990       .  S
O1919      H1939   0.990       .  S
O1919      H1948   0.990       .  S
O1920      C1921   1.282       .  A
O1922     Zr2209   2.439       .  S
O1922      H1941   0.990       .  S
O1922      H1945   0.991       .  S
O1923      H1937   0.990       .  S
O1923      H1944   0.990       .  S
O1924      C1928   1.288       .  A
O1925      C1928   1.271       .  A
O1926      H1936   0.990       .  S
O1927      H1940   0.990       .  S
C1928      C2117   1.462       .  S
C1951      N1952   1.358       .  A
C1951      N1956   1.359       .  A
C1951      C2142   1.463       .  S
N1952      C1953   1.358       .  A
C1953      N1954   1.356       .  A
N1954      C1955   1.357       .  A
C1955      N1956   1.358       .  A
C1955      C1980   1.456       .  S
Zr1957     O1959   2.466       .  S
Zr1957     O1960   2.449       .  S
Zr1957     O2275   2.453   1_554  S
Zr1957     O1965   2.389       .  S
Zr1957     O1966   2.387       .  S
Zr1957     O1967   2.431       .  S
Zr1957     O2280   2.415   1_554  S
Zr1957     O2270   2.438       .  S
O1958     Zr2269   2.438       .  S
O1958      H2014   0.990       .  S
O1958      H2022   0.990       .  S
O1959      C1979   1.288       .  A
O1960      C1981   1.283       .  A
O1961     Zr1971   2.398       .  S
O1961      C1980   1.277       .  A
O1962     Zr1970   2.412       .  S
O1962      C1981   1.274       .  A
O1963     Zr2269   2.453       .  S
O1963      C1980   1.287       .  A
O1964     Zr1972   2.401       .  S
O1964      C1979   1.279       .  A
O1965     Zr1970   2.392       .  S
O1965     Zr1972   2.374       .  S
O1966     Zr2283   2.393   1_554  S
O1966     Zr1972   2.374       .  S
O1966      H2001   0.967       .  S
O1967     Zr1970   2.393       .  S
O1967     Zr2299   2.381   1_554  S
O1967      H2004   0.964       .  S
O1968     Zr2269   2.415       .  S
O1968     Zr1971   2.384       .  S
O1968     Zr1987   2.399       .  S
Zr1969     O2300   2.455       .  S
Zr1969     O2308   2.466       .  S
Zr1969     O1984   2.456   1_556  S
Zr1969     O1975   2.404   1_556  S
Zr1969     O1976   2.417   1_556  S
Zr1969     O1977   2.391   1_556  S
Zr1969     O2290   2.393       .  S
Zr1969     O1994   2.439       .  S
Zr1970     O1989   2.437       .  S
Zr1971     O2278   2.393       .  S
Zr1971     O1973   2.437       .  S
Zr1971     O1995   2.440       .  S
Zr1972     O1998   2.435       .  S
Zr1972     O1974   2.439       .  S
O1973      H2010   0.990       .  S
O1974      H2005   0.991       .  S
O1974      H2019   0.990       .  S
O1976      H2002   0.965       .  S
O1978     Zr2281   2.393       .  S
O1978      H2003   0.966       .  S
C1979      C2101   1.479       .  S
C1981      C2025   1.467       .  S
O1983      C1985   1.277       .  A
O1984      C1985   1.287       .  A
C1985      C2115   1.451       .  S
O1986     Zr1987   2.440       .  S
O1986      H2015   0.991       .  S
Zr1987     O2279   2.381       .  S
Zr1987     O1990   2.437       .  S
Zr1987     O1991   2.439       .  S
O1988     Zr2281   2.455       .  S
O1988      C1993   1.285       .  A
O1989      H2021   0.990       .  S
O1990      H2007   0.990       .  S
O1991      H2011   0.990       .  S
O1991      H2020   0.990       .  S
O1992      C1993   1.282       .  A
C1993      C2029   1.475       .  S
O1994      H2013   0.990       .  S
O1994      H2017   0.991   1_556  S
O1995      H2009   0.990       .  S
O1995      H2016   0.990       .  S
O1996     Zr2281   2.466       .  S
O1996      C2000   1.288       .  A
O1997      C2000   1.271       .  A
O1998      H2008   0.990       .  S
O1999      H2012   0.990       .  S
C2023      N2024   1.358       .  A
C2023      N2028   1.358       .  A
C2023      C2058   1.463       .  S
N2024      C2025   1.358       .  A
C2025      N2026   1.356       .  A
N2026      C2027   1.357       .  A
C2027      N2028   1.358       .  A
C2029      N2030   1.358       .  A
C2029      N2034   1.369       .  A
N2030      C2031   1.347       .  A
C2031      N2032   1.351       .  A
C2031      C2071   1.464       .  S
N2032      C2033   1.357       .  A
C2033      N2034   1.369       .  A
C2033      C2143   1.474       .  S
Zr2035     O2041   2.443       .  S
Zr2035     O2044   2.385       .  S
Zr2035     O2046   2.416       .  S
O2036      H2092   0.991       .  S
O2036      H2100   0.991   1_545  S
O2037      C2057   1.288       .  A
O2038      C2059   1.287       .  A
O2039     Zr2049   2.418       .  S
O2039      C2058   1.281       .  A
O2040     Zr2048   2.426       .  S
O2040      C2059   1.285       .  A
O2041      C2058   1.285       .  A
O2042     Zr2050   2.407       .  S
O2042      C2057   1.279       .  A
O2043     Zr2050   2.382       .  S
O2044     Zr2049   2.393       .  S
O2044      H2079   0.967       .  S
O2045     Zr2065   2.375       .  S
O2045      H2082   0.965       .  S
O2046     Zr2049   2.386       .  S
Zr2047     O2074   2.471       .  S
Zr2047     O2053   2.390       .  S
Zr2047     O2056   2.393       .  S
Zr2048     O2061   2.417       .  S
Zr2048     O2067   2.438       .  S
Zr2048     O2060   2.435       .  S
Zr2049     O2075   2.419       .  S
Zr2049     O2053   2.380       .  S
Zr2049     O2056   2.387       .  S
Zr2049     O2051   2.435       .  S
Zr2049     O2073   2.434       .  S
Zr2050     O2054   2.397       .  S
Zr2050     O2076   2.436       .  S
Zr2050     O2077   2.436       .  S
Zr2050     O2052   2.434       .  S
O2051      H2088   0.990       .  S
O2052      H2083   0.989       .  S
O2052      H2097   0.990       .  S
O2054      H2080   0.966       .  S
O2055     Zr2065   2.374       .  S
O2056      H2081   0.968       .  S
C2057      C2103   1.474       .  S
O2060      H2096   0.990       .  S
O2061      C2063   1.282       .  A
O2062      C2063   1.285       .  A
O2064     Zr2065   2.439       .  S
O2064      H2093   0.990       .  S
Zr2065     O2070   2.404       .  S
Zr2065     O2068   2.439       .  S
Zr2065     O2069   2.438       .  S
O2066      C2071   1.285       .  A
O2067      H2084   0.990       .  S
O2067      H2099   0.990       .  S
O2068      H2085   0.990       .  S
O2069      H2089   0.990       .  S
O2069      H2098   0.990       .  S
O2070      C2071   1.278       .  A
O2072      H2091   0.990       .  S
O2072      H2095   0.990       .  S
O2073      H2087   0.990       .  S
O2073      H2094   0.990       .  S
O2074      C2078   1.290       .  A
O2075      C2078   1.284       .  A
O2076      H2086   0.990       .  S
O2077      H2090   0.990       .  S
C2078      C2109   1.481       .  S
C2101      N2102   1.363       .  A
C2101      N2106   1.370       .  A
N2102      C2103   1.350       .  A
C2103      N2104   1.352       .  A
N2104      C2105   1.358       .  A
C2105      N2106   1.369       .  A
C2105      C2162   1.481       .  S
C2107      N2108   1.371       .  A
C2107      N2112   1.363       .  A
N2108      C2109   1.369       .  A
C2109      N2110   1.358       .  A
N2110      C2111   1.352       .  A
C2111      N2112   1.350       .  A
C2111      C2141   1.473       .  S
C2113      N2114   1.359       .  A
C2113      N2118   1.356       .  A
C2113      C2147   1.463       .  S
N2114      C2115   1.360       .  A
C2115      N2116   1.355       .  A
N2116      C2117   1.352       .  A
C2117      N2118   1.358       .  A
Zr2119     O2121   2.458       .  S
Zr2119     O2122   2.465       .  S
Zr2119     O2125   2.443       .  S
Zr2119     O2127   2.386       .  S
Zr2119     O2128   2.386       .  S
Zr2119     O2129   2.414       .  S
Zr2119     O2130   2.416       .  S
Zr2119     O2120   2.442       .  S
O2120      H2176   0.991       .  S
O2120      H2184   0.991       .  S
O2121      C2141   1.288       .  A
O2122      C2143   1.287       .  A
O2123     Zr2133   2.419       .  S
O2123      C2142   1.281       .  A
O2124     Zr2132   2.425       .  S
O2124      C2143   1.284       .  A
O2125      C2142   1.285       .  A
O2126     Zr2134   2.407       .  S
O2126      C2141   1.279       .  A
O2127     Zr2132   2.392       .  S
O2127     Zr2134   2.382       .  S
O2128     Zr2133   2.393       .  S
O2128     Zr2134   2.377       .  S
O2128      H2163   0.967       .  S
O2129     Zr2132   2.396       .  S
O2129     Zr2149   2.376       .  S
O2129      H2166   0.965       .  S
O2130     Zr2133   2.386       .  S
O2130     Zr2149   2.399       .  S
Zr2131     O2150   2.439       .  S
Zr2131     O2158   2.471       .  S
Zr2131     O2146   2.449       .  S
Zr2131     O2137   2.391       .  S
Zr2131     O2138   2.414       .  S
Zr2131     O2139   2.383       .  S
Zr2131     O2140   2.393       .  S
Zr2131     O2156   2.442       .  S
Zr2132     O2145   2.417       .  S
Zr2132     O2138   2.401       .  S
Zr2132     O2139   2.390       .  S
Zr2132     O2151   2.438       .  S
Zr2132     O2144   2.435       .  S
Zr2133     O2159   2.419       .  S
Zr2133     O2137   2.380       .  S
Zr2133     O2140   2.387       .  S
Zr2133     O2135   2.435       .  S
Zr2133     O2157   2.435       .  S
Zr2134     O2137   2.375       .  S
Zr2134     O2138   2.397       .  S
Zr2134     O2160   2.436       .  S
Zr2134     O2161   2.435       .  S
Zr2134     O2136   2.433       .  S
O2135      H2172   0.990       .  S
O2136      H2167   0.989       .  S
O2136      H2181   0.990       .  S
O2138      H2164   0.966       .  S
O2139     Zr2149   2.374       .  S
O2140     Zr2149   2.384       .  S
O2140      H2165   0.968       .  S
O2144      H2180   0.990       .  S
O2145      C2147   1.282       .  A
O2146      C2147   1.285       .  A
O2148     Zr2149   2.439       .  S
O2148      H2177   0.990       .  S
Zr2149     O2154   2.405       .  S
Zr2149     O2152   2.439       .  S
Zr2149     O2153   2.438       .  S
O2150      C2155   1.285       .  A
O2151      H2168   0.990       .  S
O2151      H2183   0.990       .  S
O2152      H2169   0.990       .  S
O2153      H2173   0.990       .  S
O2153      H2182   0.990       .  S
O2154      C2155   1.278       .  A
O2156      H2175   0.990       .  S
O2156      H2179   0.990       .  S
O2157      H2171   0.990       .  S
O2157      H2178   0.990       .  S
O2158      C2162   1.289       .  A
O2159      C2162   1.284       .  A
O2160      H2170   0.990       .  S
O2161      H2174   0.990       .  S
C2185      N2186   1.356       .  A
C2185      N2190   1.359       .  A
C2185      C2375   1.463       .  S
N2186      C2187   1.358       .  A
C2187      N2188   1.352       .  A
C2187      C2312   1.462       .  S
N2188      C2189   1.355       .  A
C2189      N2190   1.360       .  A
C2189      C2225   1.451       .  S
C2191      N2192   1.358       .  A
C2191      N2196   1.369       .  A
C2191      C2233   1.476       .  S
N2192      C2193   1.347       .  A
C2193      N2194   1.351       .  A
C2193      C2467   1.464       .  S
N2194      C2195   1.357       .  A
C2195      N2196   1.370       .  A
C2195      C2371   1.474       .  S
Zr2197     O2203   2.453       .  S
Zr2197     O2206   2.387       .  S
Zr2197     O2208   2.416       .  S
O2198      H2254   0.990       .  S
O2198      H2262   0.990   1_455  S
O2199      C2219   1.288       .  A
O2200      C2221   1.284       .  A
O2201     Zr2211   2.397       .  S
O2201      C2220   1.277       .  A
O2202     Zr2210   2.411       .  S
O2202      C2221   1.274       .  A
O2203      C2220   1.287       .  A
O2204     Zr2212   2.402       .  S
O2204      C2219   1.279       .  A
O2205     Zr2212   2.374       .  S
O2206     Zr2211   2.393       .  S
O2206      H2241   0.967       .  S
O2207     Zr2227   2.381       .  S
O2207      H2244   0.964       .  S
O2208     Zr2211   2.384       .  S
Zr2209     O2236   2.466       .  S
Zr2209     O2215   2.404       .  S
Zr2209     O2218   2.394       .  S
Zr2210     O2223   2.396       .  S
Zr2210     O2229   2.437       .  S
Zr2210     O2222   2.435       .  S
Zr2211     O2237   2.394       .  S
Zr2211     O2215   2.395       .  S
Zr2211     O2218   2.392       .  S
Zr2211     O2213   2.437       .  S
Zr2211     O2235   2.439       .  S
Zr2212     O2216   2.388       .  S
Zr2212     O2238   2.435       .  S
Zr2212     O2239   2.436       .  S
Zr2212     O2214   2.439       .  S
O2213      H2250   0.990       .  S
O2214      H2245   0.991       .  S
O2214      H2259   0.990       .  S
O2216      H2242   0.965       .  S
O2217     Zr2227   2.377       .  S
O2218      H2243   0.966       .  S
C2219      C2419   1.479       .  S
C2220      C2339   1.456       .  S
C2221      C2265   1.468       .  S
O2222      H2258   0.990       .  S
O2223      C2225   1.277       .  A
O2224      C2225   1.287       .  A
O2226     Zr2227   2.441       .  S
O2226      H2255   0.991       .  S
Zr2227     O2232   2.411       .  S
Zr2227     O2230   2.438       .  S
Zr2227     O2231   2.439       .  S
O2228      C2233   1.285       .  A
O2229      H2246   0.990       .  S
O2229      H2261   0.990       .  S
O2230      H2247   0.990       .  S
O2231      H2251   0.990       .  S
O2231      H2260   0.990       .  S
O2232      C2233   1.282       .  A
O2234      H2253   0.990       .  S
O2234      H2257   0.991       .  S
O2235      H2249   0.990       .  S
O2235      H2256   0.990       .  S
O2236      C2240   1.288       .  A
O2237      C2240   1.271       .  A
O2238      H2248   0.990       .  S
O2239      H2252   0.990       .  S
C2240      C2429   1.462       .  S
C2263      N2264   1.358       .  A
C2263      N2268   1.359       .  A
C2263      C2454   1.463       .  S
N2264      C2265   1.358       .  A
C2265      N2266   1.356       .  A
N2266      C2267   1.357       .  A
C2267      N2268   1.358       .  A
C2267      C2292   1.456       .  S
Zr2269     O2271   2.466       .  S
Zr2269     O2272   2.449       .  S
Zr2269     O2277   2.389       .  S
Zr2269     O2278   2.387       .  S
Zr2269     O2279   2.431       .  S
O2270      H2326   0.990       .  S
O2270      H2334   0.990       .  S
O2271      C2291   1.288       .  A
O2272      C2293   1.283       .  A
O2273     Zr2283   2.398       .  S
O2273      C2292   1.277       .  A
O2274     Zr2282   2.412       .  S
O2274      C2293   1.274       .  A
O2275      C2292   1.287       .  A
O2276     Zr2284   2.401       .  S
O2276      C2291   1.279       .  A
O2277     Zr2282   2.392       .  S
O2277     Zr2284   2.374       .  S
O2278     Zr2284   2.374       .  S
O2278      H2313   0.967       .  S
O2279     Zr2282   2.393       .  S
O2279      H2316   0.964       .  S
O2280     Zr2283   2.384       .  S
O2280     Zr2299   2.399       .  S
Zr2281     O2296   2.456       .  S
Zr2281     O2287   2.404       .  S
Zr2281     O2288   2.417       .  S
Zr2281     O2289   2.391       .  S
Zr2281     O2306   2.439       .  S
Zr2282     O2301   2.437       .  S
Zr2283     O2285   2.437       .  S
Zr2283     O2307   2.440       .  S
Zr2284     O2310   2.435       .  S
Zr2284     O2286   2.439       .  S
O2285      H2322   0.990       .  S
O2286      H2317   0.991       .  S
O2286      H2331   0.990       .  S
O2288      H2314   0.965       .  S
O2290      H2315   0.966       .  S
C2291      C2413   1.479       .  S
C2293      C2337   1.467       .  S
O2295      C2297   1.277       .  A
O2296      C2297   1.287       .  A
C2297      C2427   1.451       .  S
O2298     Zr2299   2.440       .  S
O2298      H2327   0.991       .  S
Zr2299     O2302   2.437       .  S
Zr2299     O2303   2.439       .  S
O2300      C2305   1.285       .  A
O2301      H2333   0.990       .  S
O2302      H2319   0.990       .  S
O2303      H2323   0.990       .  S
O2303      H2332   0.990       .  S
O2304      C2305   1.282       .  A
C2305      C2341   1.475       .  S
O2306      H2325   0.990       .  S
O2306      H2329   0.991       .  S
O2307      H2321   0.990       .  S
O2307      H2328   0.990       .  S
O2308      C2312   1.288       .  A
O2309      C2312   1.271       .  A
O2310      H2320   0.990       .  S
O2311      H2324   0.990       .  S
C2335      N2336   1.358       .  A
C2335      N2340   1.358       .  A
C2335      C2370   1.463       .  S
N2336      C2337   1.358       .  A
C2337      N2338   1.356       .  A
N2338      C2339   1.357       .  A
C2339      N2340   1.358       .  A
C2341      N2342   1.358       .  A
C2341      N2346   1.369       .  A
N2342      C2343   1.347       .  A
C2343      N2344   1.351       .  A
C2343      C2383   1.464       .  S
N2344      C2345   1.357       .  A
C2345      N2346   1.369       .  A
C2345      C2455   1.474       .  S
Zr2347     O2353   2.443       .  S
Zr2347     O2356   2.385       .  S
Zr2347     O2358   2.416       .  S
O2348      H2404   0.991       .  S
O2348      H2412   0.991   1_545  S
O2349      C2369   1.288       .  A
O2350      C2371   1.287       .  A
O2351     Zr2361   2.418       .  S
O2351      C2370   1.281       .  A
O2352     Zr2360   2.426       .  S
O2352      C2371   1.285       .  A
O2353      C2370   1.285       .  A
O2354     Zr2362   2.407       .  S
O2354      C2369   1.279       .  A
O2355     Zr2362   2.382       .  S
O2356     Zr2361   2.393       .  S
O2356      H2391   0.967       .  S
O2357     Zr2377   2.375       .  S
O2357      H2394   0.965       .  S
O2358     Zr2361   2.386       .  S
Zr2359     O2386   2.471       .  S
Zr2359     O2365   2.390       .  S
Zr2359     O2368   2.393       .  S
Zr2360     O2373   2.417       .  S
Zr2360     O2379   2.438       .  S
Zr2360     O2372   2.435       .  S
Zr2361     O2387   2.419       .  S
Zr2361     O2365   2.380       .  S
Zr2361     O2368   2.387       .  S
Zr2361     O2363   2.435       .  S
Zr2361     O2385   2.434       .  S
Zr2362     O2366   2.397       .  S
Zr2362     O2388   2.436       .  S
Zr2362     O2389   2.436       .  S
Zr2362     O2364   2.434       .  S
O2363      H2400   0.990       .  S
O2364      H2395   0.989       .  S
O2364      H2409   0.990       .  S
O2366      H2392   0.966       .  S
O2367     Zr2377   2.374       .  S
O2368      H2393   0.968       .  S
C2369      C2415   1.474       .  S
O2372      H2408   0.990       .  S
O2373      C2375   1.282       .  A
O2374      C2375   1.285       .  A
O2376     Zr2377   2.439       .  S
O2376      H2405   0.990       .  S
Zr2377     O2382   2.404       .  S
Zr2377     O2380   2.439       .  S
Zr2377     O2381   2.438       .  S
O2378      C2383   1.285       .  A
O2379      H2396   0.990       .  S
O2379      H2411   0.990       .  S
O2380      H2397   0.990       .  S
O2381      H2401   0.990       .  S
O2381      H2410   0.990       .  S
O2382      C2383   1.278       .  A
O2384      H2403   0.990       .  S
O2384      H2407   0.990       .  S
O2385      H2399   0.990       .  S
O2385      H2406   0.990       .  S
O2386      C2390   1.290       .  A
O2387      C2390   1.284       .  A
O2388      H2398   0.990       .  S
O2389      H2402   0.990       .  S
C2390      C2421   1.481       .  S
C2413      N2414   1.363       .  A
C2413      N2418   1.370       .  A
N2414      C2415   1.350       .  A
C2415      N2416   1.352       .  A
N2416      C2417   1.358       .  A
C2417      N2418   1.369       .  A
C2417      C2474   1.481       .  S
C2419      N2420   1.371       .  A
C2419      N2424   1.363       .  A
N2420      C2421   1.369       .  A
C2421      N2422   1.358       .  A
N2422      C2423   1.352       .  A
C2423      N2424   1.350       .  A
C2423      C2453   1.473       .  S
C2425      N2426   1.359       .  A
C2425      N2430   1.356       .  A
C2425      C2459   1.463       .  S
N2426      C2427   1.360       .  A
C2427      N2428   1.355       .  A
N2428      C2429   1.352       .  A
C2429      N2430   1.358       .  A
Zr2431     O2433   2.458       .  S
Zr2431     O2434   2.465       .  S
Zr2431     O2437   2.443       .  S
Zr2431     O2439   2.386       .  S
Zr2431     O2440   2.386       .  S
Zr2431     O2441   2.414       .  S
Zr2431     O2442   2.416       .  S
Zr2431     O2432   2.442       .  S
O2432      H2488   0.991       .  S
O2432      H2496   0.991       .  S
O2433      C2453   1.288       .  A
O2434      C2455   1.287       .  A
O2435     Zr2445   2.419       .  S
O2435      C2454   1.281       .  A
O2436     Zr2444   2.425       .  S
O2436      C2455   1.284       .  A
O2437      C2454   1.285       .  A
O2438     Zr2446   2.407       .  S
O2438      C2453   1.279       .  A
O2439     Zr2444   2.392       .  S
O2439     Zr2446   2.382       .  S
O2440     Zr2445   2.393       .  S
O2440     Zr2446   2.377       .  S
O2440      H2475   0.967       .  S
O2441     Zr2444   2.396       .  S
O2441     Zr2461   2.376       .  S
O2441      H2478   0.965       .  S
O2442     Zr2445   2.386       .  S
O2442     Zr2461   2.399       .  S
Zr2443     O2462   2.439       .  S
Zr2443     O2470   2.471       .  S
Zr2443     O2458   2.449       .  S
Zr2443     O2449   2.391       .  S
Zr2443     O2450   2.414       .  S
Zr2443     O2451   2.383       .  S
Zr2443     O2452   2.393       .  S
Zr2443     O2468   2.442       .  S
Zr2444     O2457   2.417       .  S
Zr2444     O2450   2.401       .  S
Zr2444     O2451   2.390       .  S
Zr2444     O2463   2.438       .  S
Zr2444     O2456   2.435       .  S
Zr2445     O2471   2.419       .  S
Zr2445     O2449   2.380       .  S
Zr2445     O2452   2.387       .  S
Zr2445     O2447   2.435       .  S
Zr2445     O2469   2.435       .  S
Zr2446     O2449   2.375       .  S
Zr2446     O2450   2.397       .  S
Zr2446     O2472   2.436       .  S
Zr2446     O2473   2.435       .  S
Zr2446     O2448   2.433       .  S
O2447      H2484   0.990       .  S
O2448      H2479   0.989       .  S
O2448      H2493   0.990       .  S
O2450      H2476   0.966       .  S
O2451     Zr2461   2.374       .  S
O2452     Zr2461   2.384       .  S
O2452      H2477   0.968       .  S
O2456      H2492   0.990       .  S
O2457      C2459   1.282       .  A
O2458      C2459   1.285       .  A
O2460     Zr2461   2.439       .  S
O2460      H2489   0.990       .  S
Zr2461     O2466   2.405       .  S
Zr2461     O2464   2.439       .  S
Zr2461     O2465   2.438       .  S
O2462      C2467   1.285       .  A
O2463      H2480   0.990       .  S
O2463      H2495   0.990       .  S
O2464      H2481   0.990       .  S
O2465      H2485   0.990       .  S
O2465      H2494   0.990       .  S
O2466      C2467   1.278       .  A
O2468      H2487   0.990       .  S
O2468      H2491   0.990       .  S
O2469      H2483   0.990       .  S
O2469      H2490   0.990       .  S
O2470      C2474   1.289       .  A
O2471      C2474   1.284       .  A
O2472      H2482   0.990       .  S
O2473      H2486   0.990       .  S
