geometry optimzed in LAMMPS
_audit_creation_date              2020-11-30 
_audit_creation_method            'lammps2cif' 
_symmetry_space_group_name_H-M    'P1' 
_symmetry_Int_Tables_number       1 
_symmetry_cell_setting            triclinic 
loop_ 
_symmetry_equiv_pos_as_xyz 
  x,y,z 
_cell_length_a                    33.99481009 
_cell_length_b                    33.97506174921745 
_cell_length_c                    31.040842483903468 
_cell_angle_alpha                 89.97532042832236 
_cell_angle_beta                  90.35658104771794 
_cell_angle_gamma                 90.01559939918927 
loop_ 
_atom_site_label 
_atom_site_type_symbol 
_atom_site_fract_x 
_atom_site_fract_y 
_atom_site_fract_z 
_atom_site_charge 
O1          O  0.24431716  0.13703812  0.43073891    -0.84700
O2          O  0.25914262  0.36023916  0.42592930    -0.84900
O3          O  0.18825036  0.25005433  0.37483444    -0.86500
O4          O  0.31681489  0.24637043  0.37830122    -0.85300
O5          O  0.36362875  0.24205394  0.43191049    -0.84900
O6          O  0.14022343  0.25814183  0.42587755    -0.86200
O7          O  0.25570354  0.31173557  0.37433431    -0.84700
O8          O  0.24928083  0.18381676  0.37744772    -0.84300
Zr9        Zr  0.25218376  0.24858215  0.41152186     2.84300
O10         O  0.29494166  0.28554383  0.45501594    -1.06300
O11         O  0.20872569  0.21344084  0.45489904    -1.07000
C12         C  0.24648529  0.14797978  0.39098827     1.08400
C13         C  0.25766259  0.34799289  0.38659376     1.08400
C14         C  0.15210653  0.25391064  0.38675075     1.11300
C15         C  0.35259113  0.24414601  0.39214571     1.09100
H16         H  0.20070694  0.31031939  0.43467081     0.34700
O17         O  0.21572273  0.29296896  0.45310423    -1.27200
H18         H  0.30375499  0.18831165  0.43978691     0.34300
O19         O  0.28817878  0.20623876  0.45674817    -1.28900
O20         O  0.25895760  0.36266891  0.56669731    -0.84700
O21         O  0.24148861  0.13931991  0.57030787    -0.86200
O22         O  0.14670246  0.32495652  0.49697442    -0.84800
O23         O  0.36918115  0.30356931  0.49950076    -0.84800
O24         O  0.35714653  0.17806023  0.50480400    -0.84500
O25         O  0.13410002  0.19701978  0.49072414    -0.84300
O26         O  0.18554836  0.25424164  0.61914224    -0.84700
O27         O  0.31293264  0.24837895  0.62334210    -0.84200
O28         O  0.13867288  0.25814680  0.56554844    -0.85200
O29         O  0.36123237  0.24351033  0.57212557    -0.84400
O30         O  0.19888693  0.36795409  0.49957702    -0.84800
O31         O  0.17689755  0.14483583  0.49574650    -0.84500
O32         O  0.30550739  0.13447809  0.50883702    -0.84200
O33         O  0.32646600  0.35563653  0.49336875    -0.84600
O34         O  0.25089991  0.31598619  0.61962300    -0.84900
O35         O  0.24753646  0.18774341  0.62165292    -0.86200
Zr36       Zr  0.25896172  0.32948852  0.49691650     2.83100
Zr37       Zr  0.24408083  0.17095803  0.49999522     2.83500
Zr38       Zr  0.17218452  0.25751941  0.49636900     2.84100
Zr39       Zr  0.33008288  0.24375758  0.50092600     2.83400
Zr40       Zr  0.24990189  0.25142525  0.58544224     2.84200
O41         O  0.28652767  0.20793363  0.54364787    -1.06800
O42         O  0.21501736  0.29396081  0.53996931    -1.06300
C43         C  0.25467227  0.35175669  0.60625772     1.08400
C44         C  0.24439491  0.15154967  0.60954284     1.11000
C45         C  0.16183687  0.35989740  0.49903508     1.08600
C46         C  0.36146049  0.34051016  0.49547301     1.08900
C47         C  0.34245635  0.14332536  0.50889961     1.08500
C48         C  0.14209286  0.15989752  0.49150511     1.08100
C49         C  0.14975878  0.25639022  0.60533978     1.08500
C50         C  0.34914157  0.24581960  0.61140356     1.08000
H51         H  0.18909584  0.19939301  0.55925277     0.34700
O52         O  0.20703206  0.21443278  0.54182591    -1.27900
H53         H  0.31137174  0.30311602  0.56099463     0.34700
O54         O  0.29399298  0.28766186  0.54303224    -1.29300
N55         N  0.43946639  0.50176647  0.47691222    -0.34800
N56         N  0.00215584  0.05995499  0.49653186    -0.55400
N57         N  0.06103277  0.49712441  0.50069627    -0.34800
N58         N  0.99925205  0.43869832  0.49321922    -0.55400
C59         C  0.41671854  0.03329232  0.49495636     0.28800
C60         C  0.41659002  0.46929449  0.48032609     0.28800
C61         C  0.08350932  0.02978212  0.48853489     0.28800
C62         C  0.08139618  0.46564300  0.48594096     0.28800
C63         C  0.46700969  0.08537736  0.48369926     0.37400
C64         C  0.03454085  0.08157549  0.50617378     0.37400
C65         C  0.46870594  0.41850412  0.47053495     0.37400
C66         C  0.03066528  0.41500140  0.49946417     0.37400
C67         C  0.37923260  0.02033079  0.50553077    -0.20100
C68         C  0.37806211  0.48058808  0.48782074    -0.20100
C69         C  0.11854948  0.01855438  0.46951228    -0.20100
C70         C  0.11665006  0.47830344  0.46843780    -0.20100
C71         C  0.47891620  0.12346152  0.47419662    -0.21200
C72         C  0.02339974  0.11905135  0.51862873    -0.21200
C73         C  0.48177212  0.38315726  0.45367554    -0.21200
C74         C  0.01858201  0.37770695  0.51179528    -0.21100
C75         C  0.42756740  0.07303536  0.48770715    -0.16500
C76         C  0.42868227  0.42985034  0.47395093    -0.16500
C77         C  0.06982219  0.42578213  0.49076070    -0.16500
C78         C  0.07388710  0.06893436  0.49967628    -0.16500
H79         H  0.35284371  0.03730139  0.51050969     0.16400
H80         H  0.35253462  0.46190183  0.49153884     0.16400
H81         H  0.14233056  0.03746644  0.45919385     0.16400
H82         H  0.13921434  0.46057090  0.45353451     0.16400
H83         H  0.46067025  0.14861185  0.46646441     0.14700
H84         H  0.04197852  0.14323731  0.52864296     0.14700
H85         H  0.46409163  0.35974284  0.44000005     0.14700
H86         H  0.03677256  0.35233769  0.51883243     0.14700
H87         H  0.46847639  0.50223725  0.46678857     0.28000
H88         H  0.03561594  0.49618491  0.51920362     0.27900
O89         O  0.01021138  0.38956902  0.92602690    -0.84700
O90         O  0.99454953  0.11170024  0.92625812    -0.84900
O91         O  0.43946820  0.99945484  0.87566005    -0.86500
O92         O  0.06733982  0.00209819  0.87621414    -0.85300
O93         O  0.11380907  0.00573170  0.93026306    -0.84900
O94         O  0.39100694  0.99335996  0.92667168    -0.86200
O95         O  0.00115825  0.06434401  0.87394519    -0.84700
O96         O  0.00621167  0.43754584  0.87387203    -0.84300
Zr97       Zr  0.00264750  0.00049593  0.90973781     2.84300
O98         O  0.03861135  0.04315778  0.95422878    -1.06300
O99         O  0.46492979  0.45836649  0.95587890    -1.07000
C100        C  0.00896531  0.40148570  0.88656470     1.08400
C101        C  0.99781725  0.10028505  0.88680808     1.08400
C102        C  0.40326015  0.99627160  0.88751712     1.11300
C103        C  0.10311297  0.00366038  0.89029249     1.09100
H104        H  0.44179131  0.05292100  0.93779999     0.34700
O105        O  0.45898794  0.03739042  0.95588452    -1.27200
H106        H  0.06228063  0.44843957  0.93717485     0.34300
O107        O  0.04437635  0.46372061  0.95440388    -1.28900
O108        O  0.99204868  0.11298938  0.06598857    -0.84700
O109        O  0.00540620  0.38789005  0.06640768    -0.86200
O110        O  0.38481798  0.05605209  0.99580614    -0.84800
O111        O  0.10697565  0.07294970  0.99953506    -0.84800
O112        O  0.11735411  0.44539212  0.00470276    -0.84500
O113        O  0.39297590  0.42739640  0.99749082    -0.84300
O114        O  0.43558787  0.99780512  0.12162930    -0.84700
O115        O  0.06060188  0.00153032  0.12222696    -0.84200
O116        O  0.38886858  0.99464336  0.06782329    -0.85200
O117        O  0.10947965  0.00622281  0.07156310    -0.84400
O118        O  0.42868195  0.10723796  0.00228802    -0.84800
O119        O  0.44499618  0.38419384  0.99584611    -0.84500
O120        O  0.07361709  0.39399657  0.00026377    -0.84200
O121        O  0.05564785  0.11671508  0.99425284    -0.84600
O122        O  0.99406321  0.06547991  0.11869084    -0.84900
O123        O  0.00145273  0.43537792  0.11898428    -0.86200
Zr124      Zr  0.99489954  0.07948349  0.99645121     2.83100
Zr125      Zr  0.00658650  0.42105276  0.99641605     2.83500
Zr126      Zr  0.42173992  0.99390733  0.99784288     2.84100
Zr127      Zr  0.07986502  0.00650225  0.99962171     2.83400
Zr128      Zr  0.99805191  0.00080837  0.08377886     2.84200
O129        O  0.04180765  0.46322400  0.04184628    -1.06800
O130        O  0.45754605  0.03595807  0.04302382    -1.06300
C131        C  0.99231407  0.10161183  0.10569346     1.08400
C132        C  0.00358949  0.39933770  0.10604754     1.11000
C133        C  0.39362045  0.09303619  0.99891824     1.08600
C134        C  0.09245285  0.10802247  0.99666182     1.08900
C135        C  0.10878557  0.40847212  0.00375077     1.08500
C136        C  0.40785125  0.39226802  0.99596136     1.08100
C137        C  0.39974048  0.99656317  0.10774223     1.08500
C138        C  0.09691102  0.00356617  0.11064312     1.08000
H139        H  0.44628103  0.43949869  0.05975554     0.34700
O140        O  0.46206039  0.45713484  0.04267640    -1.27900
H141        H  0.05144299  0.06087637  0.06037465     0.34700
O142        O  0.03657008  0.04337363  0.04197824    -1.29300
N143        N  0.25229581  0.18833920  0.02180487    -0.34800
N144        N  0.18840751  0.24528368  0.00881109    -0.55400
N145        N  0.24617586  0.30828760  0.00682984    -0.34800
N146        N  0.31054590  0.25120644  0.01404302    -0.55400
C147        C  0.22116057  0.16351838  0.02003384     0.28800
C148        C  0.28544061  0.16617017  0.02202960     0.28800
C149        C  0.21355660  0.32672922  0.99158463     0.28800
C150        C  0.27766743  0.33004391  0.99496258     0.28800
C151        C  0.16743766  0.21367105  0.02167896     0.37400
C152        C  0.16459348  0.27681720  0.01344761     0.37400
C153        C  0.33418793  0.22133189  0.02719092     0.37400
C154        C  0.33067202  0.28517367  0.02050184     0.37400
C155        C  0.23462168  0.12501741  0.02010601    -0.20100
C156        C  0.27478653  0.12665028  0.02251628    -0.20100
C157        C  0.22459202  0.36011574  0.96894250    -0.20100
C158        C  0.26497921  0.36243374  0.97146888    -0.20100
C159        C  0.13026220  0.22524682  0.03476047    -0.21200
C160        C  0.12843541  0.26525007  0.02949678    -0.21200
C161        C  0.36973510  0.23651685  0.04176474    -0.21200
C162        C  0.36716559  0.27678784  0.03844246    -0.21100
C163        C  0.18091206  0.17428948  0.02082559    -0.16500
C164        C  0.32479766  0.18056589  0.02449282    -0.16500
C165        C  0.31713139  0.32313865  0.00780575    -0.16500
C166        C  0.17424013  0.31540286  0.00054193    -0.16500
H167        H  0.21753502  0.09815993  0.01978087     0.16400
H168        H  0.29337924  0.10106047  0.02592442     0.16400
H169        H  0.20559285  0.38097094  0.95265950     0.16400
H170        H  0.28296418  0.38549210  0.95773987     0.16400
H171        H  0.10697200  0.20686508  0.04727509     0.14700
H172        H  0.10335694  0.28365086  0.03676700     0.14700
H173        H  0.39481062  0.22060935  0.05440515     0.14700
H174        H  0.38981961  0.29730353  0.04825783     0.14700
H175        H  0.25082376  0.21852787  0.02538026     0.28000
H176        H  0.24665369  0.28523712  0.02891158     0.27900
C177        C  0.99896566  0.25065512  0.24897628    -0.00700
C178        C  0.24951737  0.99959726  0.24789262    -0.00700
C179        C  0.00251830  0.25117109  0.74745211    -0.00700
C180        C  0.25185562  0.50110643  0.74809287    -0.00700
C181        C  0.12612648  0.00236327  0.14413351    -0.16700
C182        C  0.15202140  0.00081792  0.17076429     0.07300
C183        C  0.18415477  0.99927845  0.19969604     0.09200
C184        C  0.21308027  0.99881837  0.22238451    -0.17600
C185        C  0.36906857  0.99788313  0.13943318    -0.16700
C186        C  0.34258624  0.99962064  0.16511215     0.07300
C187        C  0.31086064  0.00137244  0.19432506     0.09200
C188        C  0.28337007  0.00164036  0.21879714    -0.17600
C189        C  0.99967337  0.28568261  0.22124355    -0.16700
C190        C  0.00067872  0.31320042  0.19662752     0.07300
C191        C  0.00220544  0.34392868  0.16593390     0.09200
C192        C  0.00328796  0.36931786  0.13873687    -0.17600
C193        C  0.99562711  0.21543906  0.22143987    -0.16700
C194        C  0.99340521  0.18820023  0.19637787     0.07300
C195        C  0.99172005  0.15754909  0.16534174     0.09200
C196        C  0.99130316  0.13189097  0.13828714    -0.17600
C197        C  0.14250739  0.38128177  0.00769304    -0.14600
C198        C  0.14090519  0.34365947  0.99461769    -0.29800
H199        H  0.16955839  0.39277736  0.02162653     0.14400
H200        H  0.11343716  0.33240941  0.98141809     0.15000
C201        C  0.34399491  0.35825770  0.00880071    -0.14200
C202        C  0.38105299  0.35781548  0.99380501    -0.29800
H203        H  0.33205978  0.38580185  0.02080076     0.14400
H204        H  0.39286874  0.33071357  0.98063070     0.15000
C205        C  0.35819630  0.15165847  0.02546065    -0.14600
C206        C  0.36094499  0.12147931  0.99738280    -0.29800
H207        H  0.38161808  0.15565694  0.04897639     0.14400
H208        H  0.33827761  0.11692324  0.97309743     0.15000
C209        C  0.15158684  0.14180502  0.02209918    -0.14600
C210        C  0.11991368  0.14122586  0.99619206    -0.29800
H211        H  0.15710122  0.11687029  0.04321566     0.14400
H212        H  0.11326961  0.16614906  0.97543740     0.15000
C213        C  0.28759566  0.50025473  0.77482515    -0.16700
C214        C  0.31596890  0.49880213  0.79833503     0.07300
C215        C  0.34792365  0.49650739  0.82752758     0.09200
C216        C  0.37375512  0.99658169  0.85428626    -0.17600
C217        C  0.21732010  0.50166668  0.77638016    -0.16700
C218        C  0.19023773  0.50277490  0.80140411     0.07300
C219        C  0.15962468  0.50427607  0.83207593     0.09200
C220        C  0.13374317  0.00238611  0.85864899    -0.17600
C221        C  0.00205476  0.21591782  0.77466662    -0.16700
C222        C  0.00087339  0.18802691  0.79866218     0.07300
C223        C  0.99916589  0.15651849  0.82820267     0.09200
C224        C  0.99810634  0.13040697  0.85444893    -0.17600
C225        C  0.01031125  0.37179864  0.85390847    -0.16700
C226        C  0.00992327  0.34578581  0.82761371     0.07300
C227        C  0.50472639  0.31560687  0.79981169     0.09200
C228        C  0.00517912  0.28607460  0.77488881    -0.17600
C229        C  0.37877182  0.24658031  0.64460478    -0.16700
C230        C  0.40480410  0.24837676  0.67112926     0.07300
C231        C  0.43677201  0.25063214  0.70033302     0.09200
C232        C  0.46531448  0.25174269  0.72362842    -0.17600
C233        C  0.03648122  0.25043305  0.71881609    -0.16700
C234        C  0.06348096  0.25178080  0.69396324     0.07300
C235        C  0.09399299  0.25424245  0.66368406     0.09200
C236        C  0.11953985  0.25591048  0.63713583    -0.17600
C237        C  0.24488382  0.12218590  0.64267712    -0.16700
C238        C  0.24654210  0.09684140  0.66975605     0.07300
C239        C  0.24891236  0.06575493  0.69973215     0.09200
C240        C  0.25058902  0.03749598  0.72314373    -0.17600
C241        C  0.25372970  0.38220864  0.63828808    -0.16700
C242        C  0.25250856  0.40804158  0.66488915     0.07300
C243        C  0.25129340  0.43890638  0.69534322     0.09200
C244        C  0.25091702  0.46623586  0.72018395    -0.17600
C245        C  0.37050245  0.11117371  0.51412800    -0.14600
C246        C  0.39668129  0.10363578  0.48319392    -0.29800
H247        H  0.36996237  0.09410120  0.54369247     0.14400
H248        H  0.39704752  0.12211376  0.45458231     0.15000
C249        C  0.10762255  0.09696411  0.50430532    -0.14600
C250        C  0.10829063  0.13296885  0.48640465    -0.29800
H251        H  0.13365157  0.08651908  0.52131368     0.14400
H252        H  0.08301019  0.14350525  0.46822072     0.15000
C253        C  0.13502074  0.39379770  0.50204163    -0.14600
C254        C  0.09865345  0.39310316  0.48507219    -0.29800
H255        H  0.14553947  0.41985907  0.51876659     0.14400
H256        H  0.08861778  0.36651479  0.46891421     0.15000
C257        C  0.39592751  0.36707922  0.49433392    -0.14600
C258        C  0.39665203  0.39980615  0.47013367    -0.29800
H259        H  0.42146657  0.35935477  0.51377692     0.14400
H260        H  0.37100189  0.40692512  0.45054852     0.15000
C261        C  0.12227553  0.25287203  0.35369076    -0.16700
C262        C  0.09608927  0.25128863  0.32726926     0.07300
C263        C  0.06403764  0.24961089  0.29800308     0.09200
C264        C  0.03538442  0.24917027  0.27475195    -0.17600
C265        C  0.46559009  0.24974539  0.27831696    -0.16700
C266        C  0.43871444  0.24878971  0.30333167     0.07300
C267        C  0.40834869  0.24649254  0.33378713     0.09200
C268        C  0.38285911  0.24474510  0.36039569    -0.17600
C269        C  0.25718777  0.37759631  0.35370459    -0.16700
C270        C  0.25543802  0.40378384  0.32759881     0.07300
C271        C  0.25266603  0.43568956  0.29868293     0.09200
C272        C  0.25043814  0.46393894  0.27528970    -0.17600
C273        C  0.24628624  0.11747758  0.35899794    -0.16700
C274        C  0.24684152  0.09155766  0.33248039     0.07300
C275        C  0.24804677  0.06076850  0.30196826     0.09200
C276        C  0.24908352  0.03379024  0.27672683    -0.17600
O277        O  0.24449535  0.63799606  0.42959652    -0.84700
O278        O  0.26175230  0.86106263  0.42543869    -0.84900
O279        O  0.18904086  0.75120126  0.37378143    -0.86500
O280        O  0.31705076  0.74667491  0.37694870    -0.85300
O281        O  0.36375751  0.74377547  0.43074090    -0.84900
O282        O  0.14115847  0.75875499  0.42507368    -0.86200
O283        O  0.25627731  0.81257848  0.37403965    -0.84700
O284        O  0.24964163  0.68476768  0.37630851    -0.84300
Zr285      Zr  0.25262774  0.74917769  0.41075024     2.84300
O286        O  0.29584348  0.78595907  0.45391858    -1.06300
O287        O  0.20877540  0.71380896  0.45385804    -1.07000
C288        C  0.24698232  0.64895322  0.38985104     1.08400
C289        C  0.25946356  0.84877827  0.38618872     1.08400
C290        C  0.15297096  0.75500216  0.38587234     1.11300
C291        C  0.35285324  0.74545524  0.39090090     1.09100
H292        H  0.20162431  0.81103644  0.43404034     0.34700
O293        O  0.21647371  0.79357903  0.45245281    -1.27200
H294        H  0.30377374  0.68869075  0.43878722     0.34300
O295        O  0.28824767  0.70658403  0.45589090    -1.28900
O296        O  0.26001124  0.86418207  0.56484589    -0.84700
O297        O  0.24451102  0.63995826  0.56951815    -0.86200
O298        O  0.14744938  0.82551425  0.49558582    -0.84800
O299        O  0.37042237  0.80242838  0.50088571    -0.84800
O300        O  0.35742065  0.67787841  0.50212174    -0.84500
O301        O  0.13421993  0.69748732  0.49453778    -0.84300
O302        O  0.18521428  0.75578097  0.61826036    -0.84700
O303        O  0.31357630  0.75060380  0.62228407    -0.84200
O304        O  0.13867683  0.76071364  0.56443359    -0.85200
O305        O  0.36151069  0.74341901  0.57093271    -0.84400
O306        O  0.19978525  0.86835424  0.49793368    -0.84800
O307        O  0.17671006  0.64508602  0.49967153    -0.84500
O308        O  0.30562523  0.63445337  0.50532742    -0.84200
O309        O  0.32813195  0.85486349  0.49528134    -0.84600
O310        O  0.25024960  0.81791764  0.61785304    -0.84900
O311        O  0.24935865  0.68842232  0.62101997    -0.86200
Zr312      Zr  0.26004298  0.82993319  0.49600318     2.83100
Zr313      Zr  0.24415659  0.67146618  0.49925742     2.83500
Zr314      Zr  0.17277448  0.75813837  0.49571846     2.84100
Zr315      Zr  0.33032268  0.74369753  0.49996686     2.83400
Zr316      Zr  0.25013635  0.75249184  0.58497847     2.84200
O317        O  0.28643988  0.70862499  0.54297339    -1.06800
O318        O  0.21571215  0.79482922  0.53900312    -1.06300
C319        C  0.25467599  0.85359869  0.60429905     1.08400
C320        C  0.24739361  0.65212873  0.60874492     1.11000
C321        C  0.16268865  0.86040599  0.49730368     1.08600
C322        C  0.36297522  0.83944305  0.49803143     1.08900
C323        C  0.34263824  0.64305750  0.50495490     1.08500
C324        C  0.14179884  0.66028445  0.49686820     1.08100
C325        C  0.14945123  0.75861047  0.60429287     1.08500
C326        C  0.34966902  0.74699344  0.61015777     1.08000
H327        H  0.18973180  0.70047588  0.55907328     0.34700
O328        O  0.20758697  0.71528728  0.54133015    -1.27900
H329        H  0.31192911  0.80329917  0.56013242     0.34700
O330        O  0.29451112  0.78787811  0.54216926    -1.29300
N331        N  0.44023945  0.00170552  0.48837456    -0.34800
N332        N  0.00219958  0.55910043  0.50301576    -0.55400
N333        N  0.06131957  0.99753532  0.49641307    -0.34800
N334        N  0.99974883  0.93887543  0.48905744    -0.55400
C335        C  0.41590039  0.53353128  0.48251826     0.28800
C336        C  0.41822878  0.96915409  0.49498449     0.28800
C337        C  0.08330726  0.52945776  0.49352995     0.28800
C338        C  0.08203554  0.96586502  0.48268620     0.28800
C339        C  0.46740781  0.58580179  0.47901983     0.37400
C340        C  0.03453701  0.58008607  0.51458699     0.37400
C341        C  0.46957019  0.91920029  0.47972722     0.37400
C342        C  0.03112927  0.91499951  0.49493936     0.37400
C343        C  0.37747446  0.52084917  0.48837803    -0.20100
C344        C  0.38045962  0.98007924  0.50646116    -0.20100
C345        C  0.11808706  0.51846656  0.47375258    -0.20100
C346        C  0.11738845  0.97833501  0.46527455    -0.20100
C347        C  0.47977024  0.62435348  0.47311172    -0.21200
C348        C  0.02319557  0.61628859  0.53065628    -0.21200
C349        C  0.48222499  0.88493092  0.46004479    -0.21200
C350        C  0.01886047  0.87726910  0.50532244    -0.21100
C351        C  0.42772520  0.57352907  0.47965353    -0.16500
C352        C  0.42977619  0.93017148  0.48571187    -0.16500
C353        C  0.07049328  0.92600878  0.48752304    -0.16500
C354        C  0.07393341  0.56827994  0.50640388    -0.16500
H355        H  0.35108142  0.53821061  0.49164802     0.16400
H356        H  0.35563541  0.96107073  0.51292553     0.16400
H357        H  0.14195137  0.53744746  0.46382913     0.16400
H358        H  0.14009566  0.96046508  0.45084023     0.16400
H359        H  0.46194696  0.65001715  0.46630589     0.14700
H360        H  0.04180722  0.63966632  0.54274422     0.14700
H361        H  0.46426148  0.86218120  0.44550386     0.14700
H362        H  0.03689933  0.85165644  0.51172429     0.14700
H363        H  0.46785609  0.00210632  0.47427090     0.28000
H364        H  0.03559134  0.99694540  0.51440867     0.27900
O365        O  0.01053765  0.88937716  0.92660856    -0.84700
O366        O  0.99856694  0.61273198  0.92789364    -0.84900
O367        O  0.43966518  0.49780242  0.87616999    -0.86500
O368        O  0.06748757  0.50405202  0.87636497    -0.85300
O369        O  0.11388015  0.50638211  0.93056819    -0.84900
O370        O  0.39057552  0.49211378  0.92646838    -0.86200
O371        O  0.00301301  0.56564141  0.87496352    -0.84700
O372        O  0.00752385  0.93706027  0.87411420    -0.84300
Zr373      Zr  0.00277643  0.50119772  0.90973628     2.84300
O374        O  0.03899599  0.54316776  0.95494599    -1.06300
O375        O  0.46581737  0.95855140  0.95489738    -1.07000
C376        C  0.00992001  0.90110191  0.88706549     1.08400
C377        C  0.00139943  0.60159360  0.88827492     1.08400
C378        C  0.40329257  0.49459295  0.88749104     1.11300
C379        C  0.10324980  0.50542520  0.89051116     1.09100
H380        H  0.44192422  0.55277948  0.93781956     0.34700
O381        O  0.45876415  0.53740188  0.95643727    -1.27200
H382        H  0.06250323  0.94839593  0.93749532     0.34300
O383        O  0.04457941  0.96380813  0.95455027    -1.28900
O384        O  0.99382738  0.61141004  0.06845941    -0.84700
O385        O  0.00649823  0.88894066  0.06676933    -0.86200
O386        O  0.38530044  0.55761657  0.99308768    -0.84800
O387        O  0.10862413  0.57177223  0.00322652    -0.84800
O388        O  0.11787872  0.94598966  0.00369699    -0.84500
O389        O  0.39500960  0.92660330  0.99477038    -0.84300
O390        O  0.43231136  0.49728904  0.12074708    -0.84700
O391        O  0.06076221  0.50179872  0.12193885    -0.84200
O392        O  0.38612802  0.49569768  0.06630631    -0.85200
O393        O  0.10985669  0.50580648  0.07147237    -0.84400
O394        O  0.42948479  0.60847470  0.00022282    -0.84800
O395        O  0.44715998  0.88361947  0.99257497    -0.84500
O396        O  0.07429876  0.89444291  0.99960157    -0.84200
O397        O  0.05762573  0.61590221  0.99807425    -0.84600
O398        O  0.99496655  0.56327110  0.12054293    -0.84900
O399        O  0.00019219  0.93646884  0.11904371    -0.86200
Zr400      Zr  0.99585465  0.57964656  0.99765513     2.83100
Zr401      Zr  0.00706172  0.92139385  0.99675849     2.83500
Zr402      Zr  0.42062168  0.49442432  0.99778854     2.84100
Zr403      Zr  0.07990598  0.50592504  0.99998210     2.83400
Zr404      Zr  0.99787228  0.49963858  0.08389471     2.84200
O405        O  0.04191084  0.96418420  0.04183445    -1.06800
O406        O  0.45591776  0.53646033  0.04358987    -1.06300
C407        C  0.99407814  0.59953665  0.10803335     1.08400
C408        C  0.00338478  0.90044457  0.10622053     1.11000
C409        C  0.39452074  0.59456588  0.99568688     1.08600
C410        C  0.09441030  0.60701891  0.00110089     1.08900
C411        C  0.10949530  0.90896990  0.00266038     1.08500
C412        C  0.40997418  0.89157607  0.99227792     1.08100
C413        C  0.39663270  0.49665262  0.10630553     1.08500
C414        C  0.09711973  0.50389505  0.11048362     1.08000
H415        H  0.44839065  0.93888825  0.05903595     0.34700
O416        O  0.46392386  0.95671603  0.04193479    -1.27900
H417        H  0.05163636  0.55949058  0.06132236     0.34700
O418        O  0.03666888  0.54235507  0.04264945    -1.29300
N419        N  0.25388613  0.68913126  0.02326859    -0.34800
N420        N  0.18979535  0.74555230  0.01339152    -0.55400
N421        N  0.24711570  0.80849881  0.00514207    -0.34800
N422        N  0.31180500  0.75170385  0.00940035    -0.55400
C423        C  0.22276793  0.66423041  0.02158537     0.28800
C424        C  0.28696246  0.66716770  0.01945206     0.28800
C425        C  0.21382065  0.82600417  0.99024681     0.28800
C426        C  0.27807551  0.82927723  0.98978318     0.28800
C427        C  0.16888930  0.71388830  0.02634821     0.37400
C428        C  0.16543216  0.77688359  0.01600830     0.37400
C429        C  0.33522437  0.72236866  0.02417464     0.37400
C430        C  0.33163482  0.78584004  0.01563012     0.37400
C431        C  0.23621893  0.62595296  0.01762292    -0.20100
C432        C  0.27639112  0.62765243  0.01739662    -0.20100
C433        C  0.22387618  0.85767812  0.96434660    -0.20100
C434        C  0.26434849  0.85995537  0.96438317    -0.20100
C435        C  0.13120358  0.72525804  0.03779111    -0.21200
C436        C  0.12896173  0.76510481  0.03111329    -0.21200
C437        C  0.37024164  0.73795958  0.03971972    -0.21200
C438        C  0.36757696  0.77812134  0.03527439    -0.21100
C439        C  0.18258185  0.67454232  0.02538611    -0.16500
C440        C  0.32623550  0.68168812  0.02121971    -0.16500
C441        C  0.31805588  0.82319185  0.00127327    -0.16500
C442        C  0.17478448  0.81517677  0.00146211    -0.16500
H443        H  0.21909489  0.59913550  0.01631789     0.16400
H444        H  0.29496637  0.60191161  0.01763684     0.16400
H445        H  0.20415515  0.87736330  0.94735790     0.16400
H446        H  0.28171314  0.88188012  0.94780335     0.16400
H447        H  0.10766138  0.70681342  0.04962458     0.14700
H448        H  0.10327169  0.78317482  0.03658740     0.14700
H449        H  0.39492003  0.72236666  0.05373844     0.14700
H450        H  0.38968406  0.79896448  0.04574868     0.14700
H451        H  0.25277512  0.71893759  0.03020537     0.28000
H452        H  0.24862287  0.78670117  0.02869691     0.27900
C453        C  0.99993309  0.75085938  0.24810813    -0.00700
C454        C  0.24867083  0.49946772  0.24860375    -0.00700
C455        C  0.00218251  0.75177395  0.74733029    -0.00700
C456        C  0.25170153  0.00113602  0.74846347    -0.00700
C457        C  0.12617698  0.50375735  0.14407226    -0.16700
C458        C  0.15183386  0.50280313  0.17095342     0.07300
C459        C  0.18350870  0.50115773  0.20037625     0.09200
C460        C  0.21214266  0.49994712  0.22339996    -0.17600
C461        C  0.36577898  0.49729825  0.13754631    -0.16700
C462        C  0.33961505  0.49822120  0.16351548     0.07300
C463        C  0.30877124  0.49929679  0.19365225     0.09200
C464        C  0.28205593  0.49982882  0.21899981    -0.17600
C465        C  0.00028228  0.78521039  0.21936488    -0.16700
C466        C  0.00102345  0.81267250  0.19467555     0.07300
C467        C  0.00210200  0.84408958  0.16485722     0.09200
C468        C  0.00293518  0.87027462  0.13862063    -0.17600
C469        C  0.99801890  0.71488065  0.22167827    -0.16700
C470        C  0.99661073  0.68679355  0.19773047     0.07300
C471        C  0.99506338  0.65531149  0.16775750     0.09200
C472        C  0.99409951  0.62943611  0.14100265    -0.17600
C473        C  0.14342655  0.88171025  0.00607615    -0.14600
C474        C  0.14131694  0.84343503  0.99521816    -0.29800
H475        H  0.17100526  0.89360663  0.01823523     0.14400
H476        H  0.11340807  0.83182181  0.98366137     0.15000
C477        C  0.34486017  0.85845709  0.00021952    -0.14200
C478        C  0.38309792  0.85718009  0.98895085    -0.29800
H479        H  0.33223917  0.88666687  0.00909762     0.14400
H480        H  0.39579654  0.82953333  0.97837445     0.15000
C481        C  0.35974409  0.65318933  0.02145956    -0.14600
C482        C  0.36258796  0.62348008  0.99289551    -0.29800
H483        H  0.38280987  0.65670385  0.04551062     0.14400
H484        H  0.34042282  0.61942713  0.96795576     0.15000
C485        C  0.15360583  0.64157254  0.02730549    -0.14600
C486        C  0.12199486  0.64032787  0.00124385    -0.29800
H487        H  0.15978586  0.61669579  0.04831354     0.14400
H488        H  0.11535121  0.66510869  0.98031187     0.15000
C489        C  0.28773077  0.99990235  0.77464128    -0.16700
C490        C  0.31610994  0.99876898  0.79812756     0.07300
C491        C  0.34782941  0.99747131  0.82764043     0.09200
C492        C  0.37403688  0.49487418  0.85394531    -0.17600
C493        C  0.21755490  0.99980348  0.77708509    -0.16700
C494        C  0.19042360  0.99986083  0.80197226     0.07300
C495        C  0.15958706  0.00097742  0.83223879     0.09200
C496        C  0.13393217  0.50524386  0.85877120    -0.17600
C497        C  0.00308378  0.71688857  0.77519421    -0.16700
C498        C  0.00350621  0.68941495  0.79985617     0.07300
C499        C  0.00343203  0.65813818  0.82985782     0.09200
C500        C  0.00274670  0.63201310  0.85617081    -0.17600
C501        C  0.01128920  0.87141051  0.85452390    -0.16700
C502        C  0.01049814  0.84585938  0.82776388     0.07300
C503        C  0.50584127  0.81425084  0.79976752     0.09200
C504        C  0.00509516  0.78693261  0.77424755    -0.17600
C505        C  0.37955830  0.74775322  0.64301808    -0.16700
C506        C  0.40584699  0.74907583  0.66924830     0.07300
C507        C  0.43770364  0.75056342  0.69864022     0.09200
C508        C  0.46576087  0.75105361  0.72265882    -0.17600
C509        C  0.03537184  0.75121532  0.71745104    -0.16700
C510        C  0.06206917  0.75286794  0.69211698     0.07300
C511        C  0.09278445  0.75596208  0.66193939     0.09200
C512        C  0.11879020  0.75813256  0.63583070    -0.17600
C513        C  0.24892088  0.62237172  0.64150074    -0.16700
C514        C  0.25040246  0.59611103  0.66758033     0.07300
C515        C  0.25155913  0.56434387  0.69687687     0.09200
C516        C  0.25192979  0.53638189  0.72084340    -0.17600
C517        C  0.25329383  0.88436864  0.63591820    -0.16700
C518        C  0.25197616  0.91039466  0.66226548     0.07300
C519        C  0.25098244  0.94098393  0.69301569     0.09200
C520        C  0.25089065  0.96755495  0.71879315    -0.17600
C521        C  0.37052774  0.61041818  0.50790871    -0.14600
C522        C  0.39734714  0.60490216  0.47703619    -0.29800
H523        H  0.36876620  0.59063287  0.53531298     0.14400
H524        H  0.39867653  0.62551699  0.45027691     0.15000
C525        C  0.10773105  0.59659752  0.51067487    -0.14600
C526        C  0.10723638  0.63359515  0.49507178    -0.29800
H527        H  0.13500395  0.58539315  0.52441282     0.14400
H528        H  0.08065154  0.64487838  0.47996549     0.15000
C529        C  0.13584469  0.89433894  0.49978281    -0.14600
C530        C  0.09963956  0.89347925  0.48233238    -0.29800
H531        H  0.14611025  0.92044271  0.51661079     0.14400
H532        H  0.09004321  0.86688951  0.46587146     0.15000
C533        C  0.39754996  0.86567943  0.49914229    -0.14600
C534        C  0.39739734  0.90097506  0.47997789    -0.29800
H535        H  0.42369310  0.85570610  0.51624904     0.14400
H536        H  0.37099830  0.91038403  0.46292299     0.15000
C537        C  0.12309625  0.75453611  0.35295114    -0.16700
C538        C  0.09675922  0.75337678  0.32674283     0.07300
C539        C  0.06461426  0.75179462  0.29768189     0.09200
C540        C  0.03603448  0.75083824  0.27439053    -0.17600
C541        C  0.46773096  0.75193209  0.27896381    -0.16700
C542        C  0.44057839  0.75156697  0.30372262     0.07300
C543        C  0.40946812  0.74925413  0.33340489     0.09200
C544        C  0.38337492  0.74693437  0.35933621    -0.17600
C545        C  0.25953683  0.87823584  0.35320831    -0.16700
C546        C  0.25812890  0.90410757  0.32674245     0.07300
C547        C  0.25531217  0.93565946  0.29742623     0.09200
C548        C  0.25249811  0.96384077  0.27403825    -0.17600
C549        C  0.24753081  0.61851534  0.35785606    -0.16700
C550        C  0.24868285  0.59262359  0.33137112     0.07300
C551        C  0.24985915  0.56159135  0.30122616     0.09200
C552        C  0.25001050  0.53413532  0.27662908    -0.17600
O553        O  0.76187888  0.13977965  0.42757724    -0.84700
O554        O  0.74119048  0.36221237  0.43010125    -0.84900
O555        O  0.68778631  0.24661145  0.37490385    -0.86500
O556        O  0.81556015  0.25672617  0.37839070    -0.85300
O557        O  0.86247238  0.26147072  0.43187330    -0.84900
O558        O  0.63976350  0.24021653  0.42637010    -0.86200
O559        O  0.74777839  0.31525073  0.37734088    -0.84700
O560        O  0.75533463  0.18759323  0.37564113    -0.84300
Zr561      Zr  0.75102087  0.25100346  0.41214293     2.84300
O562        O  0.78527850  0.29434767  0.45724151    -1.06300
O563        O  0.71478664  0.20693265  0.45424216    -1.07000
C564        C  0.75938189  0.15158079  0.38812673     1.08400
C565        C  0.74452498  0.35110655  0.39051730     1.08400
C566        C  0.65173330  0.24282063  0.38704296     1.11300
C567        C  0.85139223  0.25994992  0.39205308     1.09100
H568        H  0.68845058  0.30084318  0.43656013     0.34700
O569        O  0.70609236  0.28592395  0.45471707    -1.27200
H570        H  0.81299867  0.20035975  0.43839899     0.34300
O571        O  0.79471442  0.21507343  0.45583193    -1.28900
O572        O  0.73377636  0.36023291  0.57015346    -0.84700
O573        O  0.76022546  0.13757179  0.56732116    -0.86200
O574        O  0.63091834  0.30151185  0.49907446    -0.84800
O575        O  0.85237373  0.32740872  0.50077524    -0.84800
O576        O  0.86709037  0.19745159  0.50818545    -0.84500
O577        O  0.64581815  0.17438744  0.49685842    -0.84300
O578        O  0.68528276  0.24450938  0.62119096    -0.84700
O579        O  0.81323254  0.25313266  0.62268447    -0.84200
O580        O  0.63816975  0.24093795  0.56781787    -0.85200
O581        O  0.86112200  0.26013003  0.57123419    -0.84400
O582        O  0.67296852  0.35436135  0.49727432    -0.84800
O583        O  0.69848833  0.13213734  0.49393890    -0.84500
O584        O  0.82460227  0.14501056  0.50262807    -0.84200
O585        O  0.79931396  0.36929830  0.50289429    -0.84600
O586        O  0.74153004  0.31280627  0.62239615    -0.84900
O587        O  0.75508727  0.18442829  0.62043759    -0.86200
Zr588      Zr  0.74044063  0.32903048  0.49988771     2.83100
Zr589      Zr  0.75820214  0.17133702  0.49805566     2.83500
Zr590      Zr  0.67069487  0.24174481  0.49769470     2.84100
Zr591      Zr  0.82897127  0.25883873  0.50102964     2.83400
Zr592      Zr  0.74918805  0.24920709  0.58643732     2.84200
O593        O  0.79292163  0.21460695  0.54282922    -1.06800
O594        O  0.70554177  0.28471635  0.54254499    -1.06300
C595        C  0.73589971  0.34860000  0.60967648     1.08400
C596        C  0.75857556  0.14859981  0.60704414     1.11000
C597        C  0.63821358  0.33880406  0.49820795     1.08600
C598        C  0.83651623  0.36213585  0.50203072     1.08900
C599        C  0.85913873  0.16014444  0.50756876     1.08500
C600        C  0.66134352  0.13969148  0.49468001     1.08100
C601        C  0.64937075  0.24241640  0.60765102     1.08500
C602        C  0.84931629  0.25679654  0.61047186     1.08000
H603        H  0.69906786  0.18765952  0.55915451     0.34700
O604        O  0.71393383  0.20583788  0.54173642    -1.27900
H605        H  0.79886762  0.31180350  0.56265284     0.34700
O606        O  0.78461429  0.29391850  0.54416318    -1.29300
N607        N  0.93989208  0.49993171  0.49873895    -0.34800
N608        N  0.49854794  0.06282029  0.49334940    -0.55400
N609        N  0.55936727  0.50251846  0.48991074    -0.34800
N610        N  0.49976641  0.44043968  0.48382773    -0.55400
C611        C  0.91986712  0.03342005  0.48231620     0.28800
C612        C  0.91824286  0.46849655  0.48558454     0.28800
C613        C  0.57966540  0.03511396  0.50863773     0.28800
C614        C  0.58012506  0.46986392  0.50049729     0.28800
C615        C  0.97056038  0.08374806  0.50189843     0.37400
C616        C  0.53039705  0.08623926  0.48979617     0.37400
C617        C  0.96720881  0.41641905  0.50108931     0.37400
C618        C  0.53256581  0.41921716  0.47542068     0.37400
C619        C  0.88431093  0.02222945  0.46361807    -0.20100
C620        C  0.88424927  0.48164005  0.46544912    -0.20100
C621        C  0.61345898  0.02290468  0.53006585    -0.20100
C622        C  0.61334043  0.48058002  0.52386665    -0.20100
C623        C  0.98330815  0.12090626  0.51440733    -0.21200
C624        C  0.51909478  0.12395419  0.47785073    -0.21200
C625        C  0.97835373  0.37864107  0.51302014    -0.21200
C626        C  0.52218757  0.38380642  0.45619969    -0.21100
C627        C  0.93115971  0.07304405  0.49137011    -0.16500
C628        C  0.92827381  0.42837829  0.49249441    -0.16500
C629        C  0.57129007  0.43096534  0.48718335    -0.16500
C630        C  0.56895796  0.07488971  0.50116952    -0.16500
H631        H  0.86091160  0.04099360  0.45187544     0.16400
H632        H  0.86108652  0.46397138  0.45122862     0.16400
H633        H  0.63527021  0.04113239  0.54590464     0.16400
H634        H  0.63581004  0.46131781  0.53690296     0.16400
H635        H  0.96644899  0.14739068  0.51919553     0.14700
H636        H  0.53767400  0.14942762  0.47299833     0.14700
H637        H  0.95950688  0.35401685  0.52090218     0.14700
H638        H  0.54149592  0.36086237  0.44469866     0.14700
H639        H  0.96485712  0.49873323  0.51829262     0.28000
H640        H  0.53568467  0.50350207  0.46854410     0.27900
O641        O  0.50785285  0.38982756  0.92958295    -0.84700
O642        O  0.49339359  0.11318562  0.93198505    -0.84900
O643        O  0.93916290  0.99592476  0.87247292    -0.86500
O644        O  0.56776658  0.00716048  0.87972048    -0.85300
O645        O  0.61422880  0.01145891  0.93370324    -0.84900
O646        O  0.89044673  0.99057472  0.92327009    -0.86200
O647        O  0.49960732  0.06659126  0.87876972    -0.84700
O648        O  0.50516997  0.43804954  0.87765557    -0.84300
Zr649      Zr  0.50293058  0.00188949  0.91286974     2.84300
O650        O  0.53840597  0.04441621  0.95800497    -1.06300
O651        O  0.96502635  0.45832732  0.95162259    -1.07000
C652        C  0.50657527  0.40184314  0.89010400     1.08400
C653        C  0.49612691  0.10234252  0.89229557     1.08400
C654        C  0.90292570  0.99233253  0.88417365     1.11300
C655        C  0.60347561  0.01034275  0.89377392     1.09100
H656        H  0.94196261  0.05249067  0.93286091     0.34700
O657        O  0.95887313  0.03723071  0.95155587    -1.27200
H658        H  0.56261685  0.44941847  0.94178503     0.34300
O659        O  0.54447828  0.46445086  0.95909790    -1.28900
O660        O  0.49048115  0.11065723  0.07144022    -0.84700
O661        O  0.50559441  0.38812628  0.07027634    -0.86200
O662        O  0.88560561  0.05808989  0.98971650    -0.84800
O663        O  0.60676792  0.07448328  0.00646840    -0.84800
O664        O  0.61703193  0.44673153  0.00875008    -0.84500
O665        O  0.89381742  0.42769384  0.99165521    -0.84300
O666        O  0.93330221  0.99726168  0.11691395    -0.84700
O667        O  0.56362342  0.00213145  0.12397652    -0.84200
O668        O  0.88663018  0.99452543  0.06305130    -0.85200
O669        O  0.61184872  0.00858898  0.07285942    -0.84400
O670        O  0.93004961  0.10886120  0.99560607    -0.84800
O671        O  0.94544801  0.38400988  0.99049736    -0.84500
O672        O  0.57384071  0.39488306  0.00338760    -0.84200
O673        O  0.55493032  0.11764075  0.00169521    -0.84600
O674        O  0.49457021  0.06250900  0.12335679    -0.84900
O675        O  0.49987064  0.43512885  0.12318352    -0.86200
Zr676      Zr  0.49451666  0.07943884  0.00122627     2.83100
Zr677      Zr  0.50650071  0.42124313  0.00041905     2.83500
Zr678      Zr  0.92098319  0.99478127  0.99410220     2.84100
Zr679      Zr  0.58028337  0.00768322  0.00252440     2.83400
Zr680      Zr  0.49980604  0.99917261  0.08713825     2.84200
O681        O  0.54149441  0.46366360  0.04601053    -1.06800
O682        O  0.95646388  0.03758271  0.03891486    -1.06300
C683        C  0.49132696  0.09855494  0.11078601     1.08400
C684        C  0.50276138  0.39926857  0.10991185     1.11000
C685        C  0.89490225  0.09506323  0.99193708     1.08600
C686        C  0.59186341  0.10946520  0.00467701     1.08900
C687        C  0.60887896  0.40967662  0.00701087     1.08500
C688        C  0.90842060  0.39241439  0.99017939     1.08100
C689        C  0.89750371  0.99541707  0.10299556     1.08500
C690        C  0.59977998  0.00572357  0.11199810     1.08000
H691        H  0.94650431  0.43982049  0.05536915     0.34700
O692        O  0.96233213  0.45747559  0.03833699    -1.27900
H693        H  0.55151660  0.06067786  0.06450717     0.34700
O694        O  0.53687511  0.04322258  0.04582259    -1.29300
N695        N  0.75307753  0.18959725  0.02038968    -0.34800
N696        N  0.68918619  0.24656184  0.01214178    -0.55400
N697        N  0.74656506  0.30939739  0.00565103    -0.34800
N698        N  0.81090984  0.25214775  0.00867405    -0.55400
C699        C  0.72169108  0.16511896  0.01807336     0.28800
C700        C  0.78589704  0.16757329  0.01469081     0.28800
C701        C  0.71341309  0.32756926  0.99148721     0.28800
C702        C  0.77755404  0.33065343  0.99144009     0.28800
C703        C  0.66887723  0.21520482  0.02696940     0.37400
C704        C  0.66546746  0.27816914  0.01694710     0.37400
C705        C  0.83441136  0.22229361  0.02209920     0.37400
C706        C  0.83089501  0.28609464  0.01575294     0.37400
C707        C  0.73464445  0.12699120  0.01132073    -0.20100
C708        C  0.77487206  0.12834792  0.01008096    -0.20100
C709        C  0.72355585  0.36026169  0.96718916    -0.20100
C710        C  0.76402010  0.36241192  0.96751235    -0.20100
C711        C  0.63234087  0.22707503  0.04174430    -0.21200
C712        C  0.63004510  0.26689974  0.03504200    -0.21200
C713        C  0.86965001  0.23742484  0.03761752    -0.21200
C714        C  0.86710533  0.27774529  0.03440916    -0.21100
C715        C  0.68186753  0.17570308  0.02449327    -0.16500
C716        C  0.82528949  0.18164695  0.01785111    -0.16500
C717        C  0.81735940  0.32394830  0.00283317    -0.16500
C718        C  0.67452247  0.31652067  0.00261844    -0.16500
H719        H  0.71718172  0.10045634  0.00882387     0.16400
H720        H  0.79317659  0.10249365  0.00810026     0.16400
H721        H  0.70393472  0.38077947  0.95128006     0.16400
H722        H  0.78150106  0.38497581  0.95213760     0.16400
H723        H  0.60957367  0.20896121  0.05576691     0.14700
H724        H  0.60517260  0.28540045  0.04281113     0.14700
H725        H  0.89454298  0.22136500  0.05048446     0.14700
H726        H  0.88955141  0.29833132  0.04465678     0.14700
H727        H  0.75229231  0.21885497  0.02983912     0.28000
H728        H  0.74797240  0.28681859  0.02830420     0.27900
C729        C  0.49931156  0.24848580  0.24941588    -0.00700
C730        C  0.75263791  0.00062030  0.24913360    -0.00700
C731        C  0.50121294  0.25139631  0.75012906    -0.00700
C732        C  0.74728776  0.49883041  0.74925009    -0.00700
C733        C  0.62951840  0.00647085  0.14492564    -0.16700
C734        C  0.65610150  0.00653178  0.17077273     0.07300
C735        C  0.68843398  0.00560661  0.19944500     0.09200
C736        C  0.71689742  0.00380484  0.22272889    -0.17600
C737        C  0.86717020  0.99436183  0.13500151    -0.16700
C738        C  0.84223443  0.99411328  0.16249423     0.07300
C739        C  0.81277181  0.99491910  0.19440281     0.09200
C740        C  0.78653781  0.99681230  0.22036165    -0.17600
C741        C  0.50009492  0.28382670  0.22238762    -0.16700
C742        C  0.50071656  0.31168289  0.19832875     0.07300
C743        C  0.50154391  0.34302219  0.16853424     0.09200
C744        C  0.50230148  0.36898638  0.14209910    -0.17600
C745        C  0.49570964  0.21386420  0.22183823    -0.16700
C746        C  0.49243903  0.18595234  0.19828725     0.07300
C747        C  0.48976695  0.15422002  0.16943051     0.09200
C748        C  0.48937950  0.12809118  0.14338244    -0.17600
C749        C  0.64292605  0.38261899  0.00986136    -0.14600
C750        C  0.64099769  0.34473949  0.99751851    -0.29800
H751        H  0.67042518  0.39433809  0.02245080     0.14400
H752        H  0.61312371  0.33320183  0.98574471     0.15000
C753        C  0.84423317  0.35905278  0.00253138    -0.14200
C754        C  0.88144858  0.35810915  0.98808512    -0.29800
H755        H  0.83229854  0.38694844  0.01351529     0.14400
H756        H  0.89336329  0.33064446  0.97594118     0.15000
C757        C  0.85863075  0.15278779  0.01883483    -0.14600
C758        C  0.86280575  0.12405594  0.98925552    -0.29800
H759        H  0.88065201  0.15548527  0.04415864     0.14400
H760        H  0.84168948  0.12099676  0.96309501     0.15000
C761        C  0.65267048  0.14304323  0.02767455    -0.14600
C762        C  0.61887508  0.14322171  0.00508208    -0.29800
H763        H  0.66049117  0.11702497  0.04622461     0.14400
H764        H  0.61060200  0.16891820  0.98628064     0.15000
C765        C  0.78448087  0.49503673  0.77337199    -0.16700
C766        C  0.81381904  0.49369121  0.79555081     0.07300
C767        C  0.84666629  0.49359424  0.82385393     0.09200
C768        C  0.87350616  0.99098589  0.85092070    -0.17600
C769        C  0.71501503  0.50294095  0.78010708    -0.16700
C770        C  0.68947203  0.50606438  0.80672025     0.07300
C771        C  0.65998309  0.50875312  0.83843253     0.09200
C772        C  0.63411020  0.01187983  0.86217714    -0.17600
C773        C  0.49999920  0.21748194  0.77933101    -0.16700
C774        C  0.49832079  0.19032739  0.80430372     0.07300
C775        C  0.49645998  0.15913147  0.83426030     0.09200
C776        C  0.49568401  0.13290954  0.86040723    -0.17600
C777        C  0.50636658  0.37222251  0.85707244    -0.16700
C778        C  0.50569209  0.34673232  0.83001319     0.07300
C779        C  0.00777573  0.31410150  0.79847254     0.09200
C780        C  0.50351590  0.28753198  0.77598627    -0.17600
C781        C  0.87923099  0.25662443  0.64330146    -0.16700
C782        C  0.90566623  0.25560276  0.66934784     0.07300
C783        C  0.93789975  0.25409507  0.69817776     0.09200
C784        C  0.96649496  0.25280156  0.72132898    -0.17600
C785        C  0.53556440  0.24833359  0.72176461    -0.16700
C786        C  0.56264465  0.24580969  0.69687011     0.07300
C787        C  0.59338919  0.24344443  0.66645055     0.09200
C788        C  0.61909170  0.24228832  0.63980071    -0.17600
C789        C  0.75975811  0.11814985  0.63916366    -0.16700
C790        C  0.75878951  0.09215416  0.66563218     0.07300
C791        C  0.75581522  0.06118013  0.69583761     0.09200
C792        C  0.75262324  0.03397353  0.72060117    -0.17600
C793        C  0.73287340  0.37851361  0.64225095    -0.16700
C794        C  0.73296937  0.40478095  0.66844768     0.07300
C795        C  0.73612162  0.43635428  0.69799564     0.09200
C796        C  0.74071530  0.46396344  0.72205954    -0.17600
C797        C  0.89186098  0.13222009  0.51443888    -0.14600
C798        C  0.90052599  0.10443573  0.48506967    -0.29800
H799        H  0.90752928  0.13347867  0.54496227     0.14400
H800        H  0.88313701  0.10369809  0.45561566     0.15000
C801        C  0.59809654  0.10706413  0.50775376    -0.14600
C802        C  0.63472346  0.10562353  0.49206002    -0.29800
H803        H  0.58806908  0.13397898  0.52309665     0.14400
H804        H  0.64531481  0.07906803  0.47648850     0.15000
C805        C  0.60362730  0.36530622  0.49898820    -0.14600
C806        C  0.60517488  0.40281950  0.48517217    -0.29800
H807        H  0.57623202  0.35348789  0.51128944     0.14400
H808        H  0.63316685  0.41439736  0.47410733     0.15000
C809        C  0.86265804  0.39688431  0.50360451    -0.14600
C810        C  0.89878219  0.39618041  0.48657709    -0.29800
H811        H  0.85209798  0.42333330  0.51941039     0.14400
H812        H  0.90850275  0.36936262  0.47078090     0.15000
C813        C  0.62209504  0.24210148  0.35394670    -0.16700
C814        C  0.59602249  0.24251751  0.32746136     0.07300
C815        C  0.56403808  0.24396857  0.29832134     0.09200
C816        C  0.53548029  0.24587026  0.27517838    -0.17600
C817        C  0.96529656  0.25314758  0.27834482    -0.16700
C818        C  0.93858543  0.25606093  0.30364339     0.07300
C819        C  0.90781938  0.25929105  0.33389768     0.09200
C820        C  0.88182319  0.26073018  0.36015289    -0.17600
C821        C  0.74533711  0.38141358  0.35826266    -0.16700
C822        C  0.74715259  0.40723213  0.33165346     0.07300
C823        C  0.74963557  0.43830775  0.30151972     0.09200
C824        C  0.75124144  0.46584905  0.27700175    -0.17600
C825        C  0.76078741  0.12184850  0.35529237    -0.16700
C826        C  0.76075427  0.09589419  0.32878476     0.07300
C827        C  0.75932929  0.06422029  0.29934149     0.09200
C828        C  0.75691542  0.03605686  0.27577952    -0.17600
O829        O  0.76189128  0.63907793  0.42938648    -0.84700
O830        O  0.74131152  0.86252498  0.43079976    -0.84900
O831        O  0.68900804  0.74475828  0.37593275    -0.86500
O832        O  0.81618944  0.75560619  0.37864644    -0.85300
O833        O  0.86323013  0.75949868  0.43204042    -0.84900
O834        O  0.64049839  0.74010203  0.42712700    -0.86200
O835        O  0.74806251  0.81527980  0.37836441    -0.84700
O836        O  0.75767408  0.68692256  0.37719771    -0.84300
Zr837      Zr  0.75186881  0.75069162  0.41317149     2.84300
O838        O  0.78602302  0.79451831  0.45781525    -1.06300
O839        O  0.71509603  0.70702494  0.45546141    -1.07000
C840        C  0.76074661  0.65080915  0.38980383     1.08400
C841        C  0.74446827  0.85124573  0.39127671     1.08400
C842        C  0.65287343  0.74169173  0.38790711     1.11300
C843        C  0.85214327  0.75805392  0.39212757     1.09100
H844        H  0.68900990  0.80060624  0.43729190     0.34700
O845        O  0.70665244  0.78573896  0.45555622    -1.27200
H846        H  0.81321138  0.69972851  0.44011048     0.34300
O847        O  0.79498076  0.71464997  0.45732235    -1.28900
O848        O  0.73562389  0.86081259  0.57074991    -0.84700
O849        O  0.75703736  0.63844527  0.56978982    -0.86200
O850        O  0.63127062  0.80186536  0.50166036    -0.84800
O851        O  0.85245755  0.82782024  0.50020011    -0.84800
O852        O  0.86682902  0.69692092  0.51111176    -0.84500
O853        O  0.64546878  0.67431066  0.49834057    -0.84300
O854        O  0.68487810  0.74567236  0.62151212    -0.84700
O855        O  0.81283314  0.75382298  0.62322855    -0.84200
O856        O  0.63774315  0.73971594  0.56846725    -0.85200
O857        O  0.86097536  0.76213940  0.57223616    -0.84400
O858        O  0.67349835  0.85454838  0.49891815    -0.84800
O859        O  0.69818869  0.63211039  0.49562604    -0.84500
O860        O  0.82413741  0.64456810  0.50581326    -0.84200
O861        O  0.79962079  0.86994474  0.50356069    -0.84600
O862        O  0.74237449  0.81331862  0.62302871    -0.84900
O863        O  0.75225988  0.68575030  0.62245353    -0.86200
Zr864      Zr  0.74096817  0.82926500  0.50043493     2.83100
Zr865      Zr  0.75798268  0.67125369  0.49971689     2.83500
Zr866      Zr  0.67071361  0.74185883  0.49864062     2.84100
Zr867      Zr  0.82951934  0.75881237  0.50169322     2.83400
Zr868      Zr  0.74895237  0.74987565  0.58701801     2.84200
O869        O  0.79291459  0.71498280  0.54384964    -1.06800
O870        O  0.70542662  0.78540273  0.54314341    -1.06300
C871        C  0.73759472  0.84917255  0.61028771     1.08400
C872        C  0.75465529  0.64975445  0.60940278     1.11000
C873        C  0.63872220  0.83913932  0.50074980     1.08600
C874        C  0.83678567  0.86265982  0.50183696     1.08900
C875        C  0.85868365  0.65960161  0.51109947     1.08500
C876        C  0.66102307  0.63956868  0.49632995     1.08100
C877        C  0.64902311  0.74208818  0.60821588     1.08500
C878        C  0.84887948  0.75842477  0.61135129     1.08000
H879        H  0.69861668  0.68829616  0.56030716     0.34700
O880        O  0.71372051  0.70620057  0.54284781    -1.27900
H881        H  0.79919179  0.81193850  0.56290230     0.34700
O882        O  0.78490244  0.79396752  0.54450513    -1.29300
N883        N  0.94033132  0.00051899  0.49325699    -0.34800
N884        N  0.49851102  0.56254195  0.48844556    -0.55400
N885        N  0.55987215  0.00321881  0.49376267    -0.34800
N886        N  0.50088208  0.94068328  0.49307028    -0.55400
C887        C  0.92009529  0.53300970  0.48715374     0.28800
C888        C  0.91831673  0.96887062  0.48141942     0.28800
C889        C  0.57915688  0.53390399  0.50619947     0.28800
C890        C  0.58109403  0.97102439  0.50488496     0.28800
C891        C  0.97043112  0.58221619  0.51037799     0.37400
C892        C  0.53053241  0.58605489  0.48824530     0.37400
C893        C  0.96757730  0.91631501  0.49539508     0.37400
C894        C  0.53341983  0.92017587  0.48198306     0.37400
C895        C  0.88525262  0.52218127  0.46661374    -0.20100
C896        C  0.88352097  0.98173836  0.46281968    -0.20100
C897        C  0.61253053  0.52088717  0.52780558    -0.20100
C898        C  0.61457619  0.98251182  0.52727897    -0.20100
C899        C  0.98298990  0.61819167  0.52670618    -0.21200
C900        C  0.51974097  0.62445331  0.47860914    -0.21200
C901        C  0.97863732  0.87810454  0.50568446    -0.21200
C902        C  0.52267508  0.88569036  0.46113536    -0.21100
C903        C  0.93130057  0.57235764  0.49762412    -0.16500
C904        C  0.92848874  0.92870952  0.48804294    -0.16500
C905        C  0.57231892  0.93191133  0.49254524    -0.16500
C906        C  0.56875603  0.57402262  0.50030520    -0.16500
H907        H  0.86246248  0.54123984  0.45400462     0.16400
H908        H  0.85991401  0.96388820  0.44982579     0.16400
H909        H  0.63419215  0.53852893  0.54466180     0.16400
H910        H  0.63742843  0.96372515  0.54034306     0.16400
H911        H  0.96595004  0.64398998  0.53421971     0.14700
H912        H  0.53848290  0.65012130  0.47643013     0.14700
H913        H  0.95978040  0.85320464  0.51240739     0.14700
H914        H  0.54179454  0.86358764  0.44748925     0.14700
H915        H  0.96599814  0.99957796  0.51165376     0.28000
H916        H  0.53581519  0.00351740  0.47283723     0.27900
O917        O  0.51079216  0.89026488  0.92771992    -0.84700
O918        O  0.49307834  0.61227012  0.93232037    -0.84900
O919        O  0.93918875  0.49833744  0.87186178    -0.86500
O920        O  0.56815631  0.50585788  0.88236616    -0.85300
O921        O  0.61420588  0.51012547  0.93677471    -0.84900
O922        O  0.89031179  0.49311330  0.92241978    -0.86200
O923        O  0.49944179  0.56549010  0.87932084    -0.84700
O924        O  0.50576635  0.93842412  0.87591025    -0.84300
Zr925      Zr  0.50276303  0.50137630  0.91431664     2.84300
O926        O  0.53813350  0.54408982  0.95950912    -1.06300
O927        O  0.96495815  0.95807801  0.95218140    -1.07000
C928        C  0.50863522  0.90221923  0.88826650     1.08400
C929        C  0.49571683  0.60124703  0.89265493     1.08400
C930        C  0.90280044  0.49518783  0.88332331     1.11300
C931        C  0.60377367  0.50875127  0.89675465     1.09100
H932        H  0.94297937  0.55371790  0.93331865     0.34700
O933        O  0.95956198  0.53806484  0.95197857    -1.27200
H934        H  0.56360229  0.94998019  0.93928567     0.34300
O935        O  0.54548896  0.96481780  0.95678107    -1.28900
O936        O  0.48922559  0.61050831  0.07288822    -0.84700
O937        O  0.50790933  0.88799164  0.06836008    -0.86200
O938        O  0.88610092  0.55827134  0.98930437    -0.84800
O939        O  0.60567015  0.57440455  0.00805477    -0.84800
O940        O  0.61819987  0.94709566  0.00770036    -0.84500
O941        O  0.89421572  0.92743382  0.99397325    -0.84300
O942        O  0.93240879  0.49596221  0.11608245    -0.84700
O943        O  0.56051302  0.50157680  0.12645338    -0.84200
O944        O  0.88613690  0.49404551  0.06175358    -0.85200
O945        O  0.60947064  0.50748057  0.07608518    -0.84400
O946        O  0.93072924  0.60893702  0.99529603    -0.84800
O947        O  0.94606733  0.88404378  0.99149004    -0.84500
O948        O  0.57514756  0.89513049  0.00280902    -0.84200
O949        O  0.55406226  0.61780561  0.00334521    -0.84600
O950        O  0.49232421  0.56244013  0.12495129    -0.84900
O951        O  0.50246911  0.93472846  0.12158836    -0.86200
Zr952      Zr  0.49406980  0.57936317  0.00223567     2.83100
Zr953      Zr  0.50807897  0.92142093  0.99862330     2.83500
Zr954      Zr  0.92115458  0.49502346  0.99339919     2.84100
Zr955      Zr  0.57916812  0.50735400  0.00495945     2.83400
Zr956      Zr  0.49743127  0.49936467  0.08831394     2.84200
O957        O  0.54338378  0.96377206  0.04398837    -1.06800
O958        O  0.95686529  0.53720589  0.03903038    -1.06300
C959        C  0.48976501  0.59852430  0.11236070     1.08400
C960        C  0.50540662  0.89892928  0.10810271     1.11000
C961        C  0.89552973  0.59517589  0.99130440     1.08600
C962        C  0.59094295  0.60949364  0.00607715     1.08900
C963        C  0.61006049  0.91000906  0.00680293     1.08500
C964        C  0.90901124  0.89229905  0.99199029     1.08100
C965        C  0.89665007  0.49446454  0.10179208     1.08500
C966        C  0.59685544  0.50460224  0.11504017     1.08000
H967        H  0.94716243  0.94034798  0.05604520     0.34700
O968        O  0.96282249  0.95791337  0.03876811    -1.27900
H969        H  0.55004967  0.56052722  0.06649729     0.34700
O970        O  0.53552280  0.54311921  0.04766387    -1.29300
N971        N  0.75319083  0.68932629  0.01939575    -0.34800
N972        N  0.68966041  0.74659196  0.01154056    -0.55400
N973        N  0.74760824  0.80977727  0.00866676    -0.34800
N974        N  0.81126523  0.75212042  0.01076648    -0.55400
C975        C  0.72174554  0.66497662  0.01621083     0.28800
C976        C  0.78600865  0.66732038  0.01362991     0.28800
C977        C  0.71472742  0.82842556  0.99454651     0.28800
C978        C  0.77879082  0.83159772  0.99608048     0.28800
C979        C  0.66910829  0.71511015  0.02572482     0.37400
C980        C  0.66630896  0.77832613  0.01739899     0.37400
C981        C  0.83515630  0.72170000  0.02152128     0.37400
C982        C  0.83210130  0.78561917  0.01744084     0.37400
C983        C  0.73466394  0.62693289  0.00880472    -0.20100
C984        C  0.77492295  0.62821272  0.00811103    -0.20100
C985        C  0.72528526  0.86206805  0.97204662    -0.20100
C986        C  0.76566884  0.86433787  0.97353419    -0.20100
C987        C  0.63283058  0.72707369  0.04116992    -0.21200
C988        C  0.63088985  0.76704296  0.03545446    -0.21200
C989        C  0.87148917  0.73605261  0.03471483    -0.21200
C990        C  0.86926377  0.77638118  0.03301799    -0.21100
C991        C  0.68191034  0.67554061  0.02268440    -0.16500
C992        C  0.82546806  0.68121519  0.01700661    -0.16500
C993        C  0.81855994  0.82398599  0.00670734    -0.16500
C994        C  0.67565412  0.81693610  0.00420141    -0.16500
H995        H  0.71714699  0.60050646  0.00543943     0.16400
H996        H  0.79323658  0.60240606  0.00557544     0.16400
H997        H  0.70602236  0.88306381  0.95637588     0.16400
H998        H  0.78339290  0.88738947  0.95939686     0.16400
H999        H  0.61006504  0.70898713  0.05522096     0.14700
H1000       H  0.60632110  0.78567736  0.04397223     0.14700
H1001       H  0.89700617  0.71946857  0.04502921     0.14700
H1002       H  0.89260559  0.79636075  0.04220798     0.14700
H1003       H  0.75239116  0.71840810  0.02943509     0.28000
H1004       H  0.74860226  0.78620671  0.03008417     0.27900
C1005       C  0.50142774  0.74957564  0.24995704    -0.00700
C1006       C  0.75182477  0.50060433  0.24888936    -0.00700
C1007       C  0.50095226  0.74985897  0.75025999    -0.00700
C1008       C  0.74911875  0.99964710  0.74904572    -0.00700
C1009       C  0.62616703  0.50452033  0.14844211    -0.16700
C1010       C  0.65262631  0.50406864  0.17444773     0.07300
C1011       C  0.68538405  0.50336343  0.20257324     0.09200
C1012       C  0.71472804  0.50251215  0.22460230    -0.17600
C1013       C  0.86579183  0.49350796  0.13332765    -0.16700
C1014       C  0.84012257  0.49380464  0.16007819     0.07300
C1015       C  0.81025187  0.49545128  0.19162394     0.09200
C1016       C  0.78447417  0.49761418  0.21818258    -0.17600
C1017       C  0.50255517  0.78419633  0.22175243    -0.16700
C1018       C  0.50358137  0.81159066  0.19703324     0.07300
C1019       C  0.50470474  0.84261416  0.16677796     0.09200
C1020       C  0.50536835  0.86848895  0.14018825    -0.17600
C1021       C  0.49769182  0.71408406  0.22355461    -0.16700
C1022       C  0.49416638  0.68573437  0.20055823     0.07300
C1023       C  0.49044398  0.65402058  0.17159320     0.09200
C1024       C  0.48879347  0.62814791  0.14515385    -0.17600
C1025       C  0.64384695  0.88292254  0.01126172    -0.14600
C1026       C  0.64220407  0.84509950  0.99868683    -0.29800
H1027       H  0.67089228  0.89460002  0.02501799     0.14400
H1028       H  0.61469402  0.83361853  0.98583937     0.15000
C1029       C  0.84582340  0.85866668  0.00710100    -0.14200
C1030       C  0.88203762  0.85814340  0.98996313    -0.29800
H1031       H  0.83483305  0.88603214  0.02058534     0.14400
H1032       H  0.89303657  0.83127375  0.97543111     0.15000
C1033       C  0.85860002  0.65219341  0.01813992    -0.14600
C1034       C  0.86342576  0.62406867  0.98811182    -0.29800
H1035       H  0.87998100  0.65428063  0.04418426     0.14400
H1036       H  0.84279422  0.62132506  0.96143669     0.15000
C1037       C  0.65279429  0.64276825  0.02635526    -0.14600
C1038       C  0.61803268  0.64324719  0.00563755    -0.29800
H1039       H  0.66125678  0.61648796  0.04409417     0.14400
H1040       H  0.60902745  0.66915113  0.98759124     0.15000
C1041       C  0.78549879  0.99521763  0.77414824    -0.16700
C1042       C  0.81443969  0.99277839  0.79664287     0.07300
C1043       C  0.84700990  0.99121901  0.82496338     0.09200
C1044       C  0.87327518  0.49414355  0.84985780    -0.17600
C1045       C  0.71624452  0.00508138  0.77889725    -0.16700
C1046       C  0.69016694  0.00863198  0.80482774     0.07300
C1047       C  0.65995996  0.01129360  0.83574306     0.09200
C1048       C  0.63455908  0.50967646  0.86533167    -0.17600
C1049       C  0.49839162  0.71583632  0.77916240    -0.16700
C1050       C  0.49634319  0.68861692  0.80399365     0.07300
C1051       C  0.49482485  0.65754900  0.83409940     0.09200
C1052       C  0.49465811  0.63156827  0.86053015    -0.17600
C1053       C  0.50889623  0.87236724  0.85534152    -0.16700
C1054       C  0.50791634  0.84616455  0.82903526     0.07300
C1055       C  0.00785614  0.81478700  0.79799179     0.09200
C1056       C  0.50366651  0.78591205  0.77632400    -0.17600
C1057       C  0.87837218  0.75859737  0.64455866    -0.16700
C1058       C  0.90434115  0.75717154  0.67110149     0.07300
C1059       C  0.93640580  0.75473010  0.70002997     0.09200
C1060       C  0.96535675  0.75291230  0.72257694    -0.17600
C1061       C  0.53583003  0.74612792  0.72286710    -0.16700
C1062       C  0.56313972  0.74348026  0.69833563     0.07300
C1063       C  0.59369689  0.74151471  0.66771548     0.09200
C1064       C  0.61902171  0.74107261  0.64063451    -0.17600
C1065       C  0.75386799  0.61947642  0.64172350    -0.16700
C1066       C  0.75241083  0.59332394  0.66798218     0.07300
C1067       C  0.75047525  0.56173851  0.69754140     0.09200
C1068       C  0.74893241  0.53385572  0.72160208    -0.17600
C1069       C  0.73525541  0.87899460  0.64294180    -0.16700
C1070       C  0.73552568  0.90497023  0.66942365     0.07300
C1071       C  0.73835277  0.93647502  0.69898339     0.09200
C1072       C  0.74252780  0.96439277  0.72262652    -0.17600
C1073       C  0.89109564  0.63150668  0.51936714    -0.14600
C1074       C  0.90137867  0.60424599  0.49001909    -0.29800
H1075       H  0.90462167  0.63177328  0.55109201     0.14400
H1076       H  0.88571123  0.60417216  0.45941509     0.15000
C1077       C  0.59796302  0.60588036  0.50907306    -0.14600
C1078       C  0.63458650  0.60525655  0.49328430    -0.29800
H1079       H  0.58787832  0.63222317  0.52550863     0.14400
H1080       H  0.64523934  0.57924932  0.47669329     0.15000
C1081       C  0.60433193  0.86585536  0.50249202    -0.14600
C1082       C  0.60613162  0.90374892  0.48993229    -0.29800
H1083       H  0.57687930  0.85387667  0.51445822     0.14400
H1084       H  0.63417564  0.91545570  0.47920348     0.15000
C1085       C  0.86320653  0.89731906  0.50259572    -0.14600
C1086       C  0.89844281  0.89675586  0.48333307    -0.29800
H1087       H  0.85355577  0.92360435  0.51941470     0.14400
H1088       H  0.90711738  0.87017512  0.46639006     0.15000
C1089       C  0.62358883  0.74108212  0.35463847    -0.16700
C1090       C  0.59781806  0.74238053  0.32794600     0.07300
C1091       C  0.56608573  0.74505169  0.29874419     0.09200
C1092       C  0.53756967  0.74738949  0.27567724    -0.17600
C1093       C  0.96572302  0.75306445  0.27694490    -0.16700
C1094       C  0.93880590  0.75519816  0.30220423     0.07300
C1095       C  0.90818069  0.75735829  0.33298805     0.09200
C1096       C  0.88252740  0.75837950  0.35983967    -0.17600
C1097       C  0.74433071  0.88151655  0.35883269    -0.16700
C1098       C  0.74520459  0.90748333  0.33226258     0.07300
C1099       C  0.74730977  0.93861807  0.30205845     0.09200
C1100       C  0.74974638  0.96601396  0.27737335    -0.17600
C1101       C  0.76228938  0.62092258  0.35688868    -0.16700
C1102       C  0.76172375  0.59518917  0.32997271     0.07300
C1103       C  0.75931593  0.56395225  0.29978412     0.09200
C1104       C  0.75632125  0.53610397  0.27568873    -0.17600
loop_ 
_geom_bond_atom_site_label_1 
_geom_bond_atom_site_label_2 
_geom_bond_distance 
_geom_bond_site_symmetry_2 
_ccdc_geom_bond_type 
O1          Zr37   2.440       .  S
O1           C12   1.291       .  A
O2          Zr36   2.438       .  S
O2           C13   1.291       .  A
O3           Zr9   2.448       .  S
O3           C14   1.292       .  A
O4           Zr9   2.434       .  S
O4           C15   1.290       .  A
O5          Zr39   2.434       .  S
O5           C15   1.290       .  A
O6          Zr38   2.437       .  S
O6           C14   1.290       .  A
O7           Zr9   2.439       .  S
O7           C13   1.291       .  A
O8           Zr9   2.444       .  S
O8           C12   1.292       .  A
Zr9          O10   2.343       .  S
Zr9          O11   2.333       .  S
Zr9          O19   2.349       .  S
Zr9          O17   2.345       .  S
O10         Zr36   2.332       .  S
O10         Zr39   2.335       .  S
O11         Zr37   2.338       .  S
O11         Zr38   2.338       .  S
C12         C273   1.436       .  S
C13         C269   1.433       .  S
C14         C261   1.439       .  S
C15         C268   1.429       .  S
H16          O17   0.965       .  S
O17         Zr36   2.351       .  S
O17         Zr38   2.338       .  S
H18          O19   0.966       .  S
O19         Zr37   2.347       .  S
O19         Zr39   2.348       .  S
O20         Zr36   2.442       .  S
O20          C43   1.292       .  A
O21         Zr37   2.435       .  S
O21          C44   1.290       .  A
O22         Zr38   2.450       .  S
O22          C45   1.295       .  A
O23         Zr39   2.428       .  S
O23          C46   1.288       .  A
O24         Zr39   2.417       .  S
O24          C47   1.288       .  A
O25         Zr38   2.435       .  S
O25          C48   1.290       .  A
O26         Zr40   2.433       .  S
O26          C49   1.289       .  A
O27         Zr40   2.440       .  S
O27          C50   1.291       .  A
O28         Zr38   2.437       .  S
O28          C49   1.290       .  A
O29         Zr39   2.445       .  S
O29          C50   1.291       .  A
O30         Zr36   2.427       .  S
O30          C45   1.289       .  A
O31         Zr37   2.453       .  S
O31          C48   1.295       .  A
O32         Zr37   2.443       .  S
O32          C47   1.291       .  A
O33         Zr36   2.464       .  S
O33          C46   1.297       .  A
O34         Zr40   2.437       .  S
O34          C43   1.291       .  A
O35         Zr40   2.439       .  S
O35          C44   1.290       .  A
Zr36         O42   2.345       .  S
Zr36         O54   2.338       .  S
Zr37         O41   2.339       .  S
Zr37         O52   2.340       .  S
Zr38         O42   2.337       .  S
Zr38         O52   2.349       .  S
Zr39         O41   2.335       .  S
Zr39         O54   2.337       .  S
Zr40         O41   2.332       .  S
Zr40         O42   2.338       .  S
Zr40         O54   2.349       .  S
Zr40         O52   2.348       .  S
C43         C241   1.436       .  S
C44         C237   1.433       .  S
C45         C253   1.472       .  S
C46         C257   1.479       .  S
C47         C245   1.458       .  S
C48         C250   1.476       .  S
C49         C236   1.429       .  S
C50         C229   1.437       .  S
H51          O52   0.964       .  S
H53          O54   0.965       .  S
N55          C60   1.354       .  A
N55         C335   1.356       .  A
N55          H87   1.037       .  S
N56          C64   1.355       .  A
N56         C615   1.356   1_455  A
N57          C62   1.356       .  A
N57         C337   1.353       .  A
N57          H88   1.041       .  S
N58          C66   1.351   1_655  A
N58         C617   1.350       .  A
C59         N331   1.355       .  A
C59          C67   1.389       .  A
C59          C75   1.418       .  A
C60          C76   1.416       .  A
C60          C68   1.386       .  A
C61         N333   1.353   1_545  A
C61          C69   1.386       .  A
C61          C78   1.414       .  A
C62          C77   1.418       .  A
C62          C70   1.387       .  A
C63         N608   1.350       .  A
C63          C75   1.411       .  A
C63          C71   1.388       .  A
C64          C78   1.421       .  A
C64          C72   1.384       .  A
C65         N610   1.355       .  A
C65          C73   1.385       .  A
C65          C76   1.419       .  A
C66          C74   1.386       .  A
C66          C77   1.408       .  A
C67         C344   1.368   1_545  A
C67          H79   1.079       .  S
C68         C343   1.368       .  A
C68          H80   1.082       .  S
C69         C346   1.373   1_545  A
C69          H81   1.082       .  S
C70         C345   1.375       .  A
C70          H82   1.082       .  S
C71         C624   1.370       .  A
C71          H83   1.082       .  S
C72         C623   1.370   1_455  A
C72          H84   1.081       .  S
C73         C626   1.376       .  A
C73          H85   1.082       .  S
C74         C625   1.369   1_455  A
C74          H86   1.082       .  S
C75         C246   1.484       .  S
C76         C258   1.496       .  S
C77         C254   1.492       .  S
C78         C249   1.497       .  S
O89        Zr125   2.437       .  S
O89         C100   1.290       .  A
O90        Zr124   2.438       .  S
O90         C101   1.290       .  A
O91        Zr649   2.442   1_565  S
O91         C102   1.291       .  A
O92         Zr97   2.439       .  S
O92         C103   1.291       .  A
O93        Zr127   2.449       .  S
O93         C103   1.293       .  A
O94        Zr126   2.438       .  S
O94         C102   1.291       .  A
O95         Zr97   2.437       .  S
O95         C101   1.290   1_455  A
O96        Zr373   2.436       .  S
O96         C100   1.290       .  A
Zr97        O643   2.447   1_445  S
Zr97        O372   2.429   1_545  S
Zr97         O98   2.341       .  S
Zr97        O927   2.339   1_445  S
Zr97        O383   2.344   1_545  S
Zr97        O657   2.342   1_455  S
O98        Zr124   2.340   1_455  S
O98        Zr127   2.340       .  S
O99        Zr925   2.339       .  S
O99        Zr677   2.340   1_556  S
O99        Zr402   2.343       .  S
C100        C225   1.431       .  S
C101        C224   1.434       .  S
C102        C216   1.434       .  S
C103        C220   1.437       .  S
H104        O105   0.965       .  S
O105       Zr126   2.345   1_545  S
O105       Zr649   2.344       .  S
O105       Zr676   2.337   1_556  S
H106        O107   0.965       .  S
O107       Zr125   2.339       .  S
O107       Zr373   2.349       .  S
O107       Zr403   2.344       .  S
O108       Zr124   2.443   1_554  S
O108        C131   1.291       .  A
O109       Zr125   2.447   1_554  S
O109        C132   1.292       .  A
O110       Zr126   2.457   1_545  S
O110        C133   1.295       .  A
O111       Zr127   2.438       .  S
O111        C134   1.293       .  A
O112       Zr403   2.423   1_554  S
O112        C135   1.288       .  A
O113       Zr402   2.463       .  S
O113        C136   1.297       .  A
O114       Zr680   2.438       .  S
O114        C137   1.291       .  A
O115       Zr128   2.432   1_455  S
O115        C138   1.290       .  A
O116       Zr126   2.449   1_554  S
O116        C137   1.293       .  A
O117       Zr127   2.444   1_554  S
O117        C138   1.292       .  A
O118       Zr676   2.430       .  S
O118        C133   1.289   1_554  A
O119       Zr677   2.444   1_556  S
O119        C136   1.292       .  A
O120       Zr125   2.460   1_554  S
O120        C135   1.297       .  A
O121       Zr124   2.423   1_455  S
O121        C134   1.287       .  A
O122       Zr128   2.455       .  S
O122        C131   1.293       .  A
O123       Zr404   2.442   1_455  S
O123        C132   1.291       .  A
Zr124       O670   2.420       .  S
Zr124       O142   2.342   1_656  S
Zr124       O657   2.341       .  S
Zr124       O682   2.343   1_556  S
Zr125       O671   2.435   1_455  S
Zr125       O129   2.336   1_556  S
Zr125       O651   2.347   1_455  S
Zr125       O692   2.348   1_456  S
Zr126       O389   2.462       .  S
Zr126       O130   2.339   1_566  S
Zr126       O375   2.344       .  S
Zr126       O416   2.345   1_556  S
Zr127       O388   2.431   1_546  S
Zr127       O142   2.343   1_556  S
Zr127       O383   2.341   1_545  S
Zr127       O405   2.338   1_546  S
Zr128       O666   2.438   1_545  S
Zr128       O399   2.445   1_645  S
Zr128       O142   2.347   1_655  S
Zr128       O405   2.344   1_645  S
Zr128       O682   2.340       .  S
Zr128       O968   2.343   1_545  S
O129       Zr403   2.343   1_554  S
O129       Zr404   2.343   1_455  S
O130       Zr676   2.337       .  S
O130       Zr680   2.340   1_545  S
C131        C196   1.444       .  S
C132        C192   1.438       .  S
C133        C206   1.473       .  S
C134        C210   1.464       .  S
C135        C197   1.477       .  S
C136        C202   1.484       .  S
C137        C185   1.439       .  S
C138        C181   1.434       .  S
H139        O140   0.965       .  S
O140       Zr677   2.349       .  S
O140       Zr402   2.346   1_554  S
O140       Zr956   2.343       .  S
H141        O142   0.965       .  S
N143        C148   1.355       .  A
N143        C147   1.354       .  A
N143        H175   1.033       .  S
N144        C151   1.351       .  A
N144        C152   1.351       .  A
N145        C150   1.354   1_554  A
N145        C149   1.356   1_554  A
N145        H176   1.041       .  S
N146        C153   1.356       .  A
N146        C154   1.356       .  A
C147        C155   1.386       .  A
C147        C163   1.417       .  A
C148        C164   1.426       .  A
C148        C156   1.391       .  A
C149        C157   1.387       .  A
C149        C166   1.420   1_556  A
C150        C165   1.417   1_556  A
C150        C158   1.387       .  A
C151        C163   1.415       .  A
C151        C159   1.387       .  A
C152        C166   1.410       .  A
C152        C160   1.386       .  A
C153        C161   1.387       .  A
C153        C164   1.424       .  A
C154        C162   1.386       .  A
C154        C165   1.424       .  A
C155        C156   1.368       .  A
C155        H167   1.082       .  S
C156        H168   1.080       .  S
C157        C158   1.377       .  A
C157        H169   1.082       .  S
C158        H170   1.083       .  S
C159        C160   1.370       .  A
C159        H171   1.082       .  S
C160        H172   1.082       .  S
C161        C162   1.375       .  A
C161        H173   1.081       .  S
C162        H174   1.081       .  S
C163        C209   1.488       .  S
C164        C205   1.502       .  S
C165        C201   1.503       .  S
C166        C198   1.496   1_554  S
C177        C189   1.469       .  S
C177        C193   1.475       .  S
C177        C264   1.471   1_655  S
C177        C817   1.470       .  S
C178        C184   1.466       .  S
C178        C188   1.469   1_565  S
C178        C276   1.467   1_565  S
C178        C548   1.464       .  S
C179        C221   1.466       .  S
C179        C228   1.463       .  S
C179        C233   1.462       .  S
C179        C784   1.466   1_455  S
C180        C213   1.467       .  S
C180        C217   1.471       .  S
C180        C244   1.468       .  S
C180        C516   1.467       .  S
C181        C182   1.205       .  T
C182        C183   1.411   1_545  S
C183        C184   1.206       .  T
C185        C186   1.208       .  T
C186        C187   1.415   1_565  S
C187        C188   1.208       .  T
C189        C190   1.208   1_655  T
C190        C191   1.414       .  S
C191        C192   1.207       .  T
C193        C194   1.211       .  T
C194        C195   1.420       .  S
C195        C196   1.211       .  T
C197        C198   1.342   1_554  D
C197        H199   1.086       .  S
C198        H200   1.087       .  S
C201        C202   1.346   1_554  D
C201        H203   1.087       .  S
C202        H204   1.086       .  S
C205        C206   1.350   1_554  D
C205        H207   1.085       .  S
C206        H208   1.086       .  S
C209        C210   1.340   1_554  D
C209        H211   1.087       .  S
C210        H212   1.087       .  S
C213        C214   1.207       .  T
C214        C215   1.412       .  S
C215        C492   1.206       .  T
C216        C491   1.205       .  T
C217        C218   1.209       .  T
C218        C219   1.416       .  S
C219        C496   1.208       .  T
C220        C495   1.206       .  T
C221        C222   1.206       .  T
C222        C223   1.411   1_455  S
C223        C224   1.205       .  T
C225        C226   1.203       .  T
C226        C779   1.408       .  S
C227        C780   1.208       .  T
C227        C778   1.414       .  S
C228        C779   1.204       .  T
C229        C230   1.207       .  T
C230        C231   1.413       .  S
C231        C232   1.207       .  T
C232        C731   1.468       .  S
C233        C234   1.204       .  T
C234        C235   1.407       .  S
C235        C236   1.202       .  T
C237        C238   1.204       .  T
C238        C239   1.409       .  S
C239        C240   1.205       .  T
C240        C456   1.464       .  S
C241        C242   1.206       .  T
C242        C243   1.413       .  S
C243        C244   1.207       .  T
C245        C246   1.338       .  D
C245        H247   1.086       .  S
C246        H248   1.088       .  S
C249        C250   1.344       .  D
C249        H251   1.087       .  S
C250        H252   1.086       .  S
C253        C254   1.341       .  D
C253        H255   1.086       .  S
C254        H256   1.087       .  S
C257        C258   1.342       .  D
C257        H259   1.086       .  S
C258        H260   1.087       .  S
C261        C262   1.208       .  T
C262        C263   1.415       .  S
C263        C264   1.209       .  T
C265        C729   1.461       .  S
C265        C266   1.203       .  T
C266        C267   1.406       .  S
C267        C268   1.202       .  T
C269        C270   1.204       .  T
C270        C271   1.410       .  S
C271        C272   1.205       .  T
C272        C454   1.465       .  S
C273        C274   1.206       .  T
C274        C275   1.412       .  S
C275        C276   1.207       .  T
O277       Zr313   2.444       .  S
O277        C288   1.292       .  A
O278       Zr312   2.433       .  S
O278        C289   1.290       .  A
O279       Zr285   2.442       .  S
O279        C290   1.291       .  A
O280       Zr285   2.436       .  S
O280        C291   1.290       .  A
O281       Zr315   2.437       .  S
O281        C291   1.290       .  A
O282       Zr314   2.436       .  S
O282        C290   1.290       .  A
O283       Zr285   2.440       .  S
O283        C289   1.291       .  A
O284       Zr285   2.438       .  S
O284        C288   1.291       .  A
Zr285       O286   2.343       .  S
Zr285       O287   2.341       .  S
Zr285       O295   2.346       .  S
Zr285       O293   2.342       .  S
O286       Zr312   2.333       .  S
O286       Zr315   2.336       .  S
O287       Zr313   2.341       .  S
O287       Zr314   2.340       .  S
C288        C549   1.434       .  S
C289        C545   1.431       .  S
C290        C537   1.436       .  S
C291        C544   1.432       .  S
H292        O293   0.964       .  S
O293       Zr312   2.350       .  S
O293       Zr314   2.342       .  S
H294        O295   0.966       .  S
O295       Zr313   2.346       .  S
O295       Zr315   2.342       .  S
O296       Zr312   2.434       .  S
O296        C319   1.290       .  A
O297       Zr313   2.429       .  S
O297        C320   1.289       .  A
O298       Zr314   2.446       .  S
O298        C321   1.295       .  A
O299       Zr315   2.416       .  S
O299        C322   1.286       .  A
O300       Zr315   2.419       .  S
O300        C323   1.288       .  A
O301       Zr314   2.442       .  S
O301        C324   1.292       .  A
O302       Zr316   2.445       .  S
O302        C325   1.292       .  A
O303       Zr316   2.442       .  S
O303        C326   1.292       .  A
O304       Zr314   2.436       .  S
O304        C325   1.290       .  A
O305       Zr315   2.439       .  S
O305        C326   1.291       .  A
O306       Zr312   2.430       .  S
O306        C321   1.290       .  A
O307       Zr313   2.462       .  S
O307        C324   1.297       .  A
O308       Zr313   2.445       .  S
O308        C323   1.292       .  A
O309       Zr312   2.465       .  S
O309        C322   1.298       .  A
O310       Zr316   2.446       .  S
O310        C319   1.292       .  A
O311       Zr316   2.447       .  S
O311        C320   1.292       .  A
Zr312       O318   2.345       .  S
Zr312       O330   2.334       .  S
Zr313       O317   2.340       .  S
Zr313       O328   2.343       .  S
Zr314       O318   2.338       .  S
Zr314       O328   2.346       .  S
Zr315       O317   2.334       .  S
Zr315       O330   2.340       .  S
Zr316       O317   2.338       .  S
Zr316       O318   2.335       .  S
Zr316       O330   2.347       .  S
Zr316       O328   2.346       .  S
C319        C517   1.435       .  S
C320        C513   1.434       .  S
C321        C529   1.473       .  S
C322        C533   1.475       .  S
C323        C521   1.462       .  S
C324        C526   1.485       .  S
C325        C512   1.434       .  S
C326        C505   1.435       .  S
H327        O328   0.964       .  S
H329        O330   0.965       .  S
N331        C336   1.351   1_545  A
N331        H363   1.038       .  S
N332        C891   1.356   1_455  A
N332        C340   1.357       .  A
N333        C338   1.356       .  A
N333        H364   1.041       .  S
N334        C893   1.351       .  A
N334        C342   1.352   1_655  A
C335        C343   1.388       .  A
C335        C351   1.420       .  A
C336        C352   1.412       .  A
C336        C344   1.385       .  A
C337        C345   1.387       .  A
C337        C354   1.415       .  A
C338        C353   1.418       .  A
C338        C346   1.387       .  A
C339        N884   1.351       .  A
C339        C351   1.412       .  A
C339        C347   1.388       .  A
C340        C354   1.423       .  A
C340        C348   1.383       .  A
C341        N886   1.353       .  A
C341        C349   1.385       .  A
C341        C352   1.417       .  A
C342        C350   1.386       .  A
C342        C353   1.410       .  A
C343        H355   1.079       .  S
C344        H356   1.082       .  S
C345        H357   1.082       .  S
C346        H358   1.082       .  S
C347        C900   1.368       .  A
C347        H359   1.082       .  S
C348        C899   1.373   1_455  A
C348        H360   1.081       .  S
C349        C902   1.376       .  A
C349        H361   1.082       .  S
C350        C901   1.368   1_455  A
C350        H362   1.082       .  S
C351        C522   1.486       .  S
C352        C534   1.491       .  S
C353        C530   1.494       .  S
C354        C525   1.504       .  S
O365       Zr401   2.438       .  S
O365        C376   1.290       .  A
O366       Zr400   2.442       .  S
O366        C377   1.291   1_655  A
O367       Zr925   2.447       .  S
O367        C378   1.292       .  A
O368       Zr373   2.439       .  S
O368        C379   1.291       .  A
O369       Zr403   2.451       .  S
O369        C379   1.293       .  A
O370       Zr402   2.434       .  S
O370        C378   1.290       .  A
O371       Zr373   2.441       .  S
O371        C377   1.291       .  A
O372        C376   1.288       .  A
Zr373       O919   2.456   1_455  S
Zr373       O374   2.345       .  S
Zr373       O651   2.340   1_455  S
Zr373       O933   2.339   1_455  S
O374       Zr400   2.339   1_455  S
O374       Zr403   2.338       .  S
O375       Zr649   2.341   1_565  S
O375       Zr953   2.339       .  S
C376        C501   1.429       .  S
C377        C500   1.436       .  S
C378        C492   1.435       .  S
C379        C496   1.439       .  S
H380        O381   0.965       .  S
O381       Zr925   2.339       .  S
O381       Zr952   2.340   1_556  S
O381       Zr402   2.341       .  S
H382        O383   0.964       .  S
O383       Zr401   2.332       .  S
O384       Zr400   2.450   1_554  S
O384        C407   1.293       .  A
O385       Zr401   2.437   1_554  S
O385        C408   1.291       .  A
O386       Zr402   2.464       .  S
O386        C409   1.296       .  A
O387       Zr403   2.443   1_554  S
O387        C410   1.293       .  A
O388        C411   1.290       .  A
O389        C412   1.297       .  A
O390       Zr956   2.439       .  S
O390        C413   1.291       .  A
O391       Zr404   2.437   1_455  S
O391        C414   1.290       .  A
O392       Zr402   2.435   1_554  S
O392        C413   1.290       .  A
O393       Zr403   2.436   1_554  S
O393        C414   1.290       .  A
O394       Zr952   2.409       .  S
O394        C409   1.286   1_554  A
O395       Zr953   2.443       .  S
O395        C412   1.293       .  A
O396       Zr401   2.464       .  S
O396        C411   1.297   1_556  A
O397       Zr400   2.434   1_455  S
O397        C410   1.289   1_556  A
O398       Zr404   2.446       .  S
O398        C407   1.292       .  A
O399        C408   1.292       .  A
Zr400       O946   2.428       .  S
Zr400       O933   2.347       .  S
Zr400       O958   2.346   1_556  S
Zr400       O418   2.336   1_656  S
Zr401       O947   2.435   1_455  S
Zr401       O927   2.343   1_455  S
Zr401       O405   2.336   1_556  S
Zr401       O968   2.351   1_456  S
Zr402       O406   2.341   1_556  S
Zr403       O418   2.339   1_556  S
Zr404       O942   2.448       .  S
Zr404       O958   2.342       .  S
Zr404       O418   2.346   1_655  S
Zr404       O692   2.343       .  S
O406       Zr952   2.339       .  S
O406       Zr956   2.341       .  S
C407        C472   1.442       .  S
C408        C468   1.436       .  S
C409        C482   1.466       .  S
C410        C486   1.469       .  S
C411        C473   1.483       .  S
C412        C478   1.486       .  S
C413        C461   1.433       .  S
C414        C457   1.432       .  S
H415        O416   0.965       .  S
O416       Zr953   2.351   1_554  S
O416       Zr680   2.349       .  S
H417        O418   0.964       .  S
N419        C424   1.356       .  A
N419        C423   1.355       .  A
N419        H451   1.036       .  S
N420        C427   1.352       .  A
N420        C428   1.352       .  A
N421        C426   1.356   1_554  A
N421        C425   1.357   1_554  A
N421        H452   1.042       .  S
N422        C429   1.354       .  A
N422        C430   1.355       .  A
C423        C431   1.384       .  A
C423        C439   1.416       .  A
C424        C440   1.424       .  A
C424        C432   1.391       .  A
C425        C433   1.387       .  A
C425        C442   1.422   1_556  A
C426        C441   1.418   1_556  A
C426        C434   1.386       .  A
C427        C439   1.416       .  A
C427        C435   1.387       .  A
C428        C442   1.414       .  A
C428        C436   1.387       .  A
C429        C437   1.387       .  A
C429        C440   1.418       .  A
C430        C438   1.387       .  A
C430        C441   1.421       .  A
C431        C432   1.367       .  A
C431        H443   1.082       .  S
C432        H444   1.079       .  S
C433        C434   1.378       .  A
C433        H445   1.082       .  S
C434        H446   1.082       .  S
C435        C436   1.372       .  A
C435        H447   1.082       .  S
C436        H448   1.082       .  S
C437        C438   1.374       .  A
C437        H449   1.081       .  S
C438        H450   1.081       .  S
C439        C485   1.493       .  S
C440        C481   1.495       .  S
C441        C477   1.506       .  S
C442        C474   1.500   1_554  S
C453        C465   1.469   1_655  S
C453        C469   1.474       .  S
C453        C540   1.469   1_655  S
C453       C1093   1.474       .  S
C454        C460   1.464       .  S
C454        C464   1.465       .  S
C454        C552   1.465       .  S
C455        C497   1.467       .  S
C455        C504   1.461       .  S
C455       C1060   1.465   1_455  S
C455        C509   1.465       .  S
C456        C489   1.466   1_545  S
C456        C493   1.467   1_545  S
C456        C520   1.467   1_545  S
C457        C458   1.204       .  T
C458        C459   1.409       .  S
C459        C460   1.205       .  T
C461        C462   1.205       .  T
C462        C463   1.410       .  S
C463        C464   1.205       .  T
C465        C466   1.208       .  T
C466        C467   1.413       .  S
C467        C468   1.206       .  T
C469        C470   1.211       .  T
C470        C471   1.419       .  S
C471        C472   1.210       .  T
C473        C474   1.345   1_554  D
C473        H475   1.086       .  S
C474        H476   1.086       .  S
C477        C478   1.349   1_554  D
C477        H479   1.087       .  S
C478        H480   1.086       .  S
C481        C482   1.348   1_554  D
C481        H483   1.086       .  S
C482        H484   1.086       .  S
C485        C486   1.342       .  D
C485        H487   1.087       .  S
C486        H488   1.086   1_554  S
C489        C490   1.206       .  T
C490        C491   1.411       .  S
C493        C494   1.207       .  T
C494        C495   1.413   1_565  S
C497        C498   1.207       .  T
C498        C499   1.413       .  S
C499        C500   1.206       .  T
C501        C502   1.202       .  T
C502       C1055   1.406       .  S
C503       C1056   1.209       .  T
C503       C1054   1.416       .  S
C504       C1055   1.203       .  T
C505        C506   1.206       .  T
C506        C507   1.413       .  S
C507        C508   1.207       .  T
C508       C1007   1.468       .  S
C509        C510   1.206       .  T
C510        C511   1.411       .  S
C511        C512   1.205       .  T
C513        C514   1.205       .  T
C514        C515   1.411       .  S
C515        C516   1.206       .  T
C517        C518   1.206       .  T
C518        C519   1.412       .  S
C519        C520   1.207       .  T
C521        C522   1.340       .  D
C521        H523   1.086       .  S
C522        H524   1.087       .  S
C525        C526   1.347       .  D
C525        H527   1.087       .  S
C526        H528   1.086       .  S
C529        C530   1.342       .  D
C529        H531   1.086       .  S
C530        H532   1.087       .  S
C533        C534   1.338       .  D
C533        H535   1.087       .  S
C534        H536   1.087       .  S
C537        C538   1.207       .  T
C538        C539   1.414       .  S
C539        C540   1.208       .  T
C541       C1005   1.464       .  S
C541        C542   1.205       .  T
C542        C543   1.409       .  S
C543        C544   1.204       .  T
C545        C546   1.204       .  T
C546        C547   1.409       .  S
C547        C548   1.205       .  T
C549        C550   1.205       .  T
C550        C551   1.411       .  S
C551        C552   1.206       .  T
O553       Zr589   2.441       .  S
O553        C564   1.291       .  A
O554       Zr588   2.442       .  S
O554        C565   1.291       .  A
O555       Zr561   2.439       .  S
O555        C566   1.291       .  A
O556       Zr561   2.445       .  S
O556        C567   1.292       .  A
O557       Zr591   2.438       .  S
O557        C567   1.291       .  A
O558       Zr590   2.446       .  S
O558        C566   1.292       .  A
O559       Zr561   2.437       .  S
O559        C565   1.290       .  A
O560       Zr561   2.439       .  S
O560        C564   1.290       .  A
Zr561       O562   2.338       .  S
Zr561       O563   2.342       .  S
Zr561       O571   2.347       .  S
Zr561       O569   2.348       .  S
O562       Zr588   2.343       .  S
O562       Zr591   2.342       .  S
O563       Zr589   2.338       .  S
O563       Zr590   2.344       .  S
C564        C825   1.436       .  S
C565        C821   1.436       .  S
C566        C813   1.435       .  S
C567        C820   1.437       .  S
H568        O569   0.964       .  S
O569       Zr588   2.336       .  S
O569       Zr590   2.345       .  S
H570        O571   0.966       .  S
O571       Zr589   2.342       .  S
O571       Zr591   2.349       .  S
O572       Zr588   2.437       .  S
O572        C595   1.290       .  A
O573       Zr589   2.437       .  S
O573        C596   1.290       .  A
O574       Zr590   2.440       .  S
O574        C597   1.291       .  A
O575       Zr591   2.462       .  S
O575        C598   1.298       .  A
O576       Zr591   2.465       .  S
O576        C599   1.296       .  A
O577       Zr590   2.440       .  S
O577        C600   1.294       .  A
O578       Zr592   2.437       .  S
O578        C601   1.291       .  A
O579       Zr592   2.448       .  S
O579        C602   1.292       .  A
O580       Zr590   2.448       .  S
O580        C601   1.292       .  A
O581       Zr591   2.432       .  S
O581        C602   1.290       .  A
O582       Zr588   2.451       .  S
O582        C597   1.295       .  A
O583       Zr589   2.430       .  S
O583        C600   1.289       .  A
O584       Zr589   2.432       .  S
O584        C599   1.290       .  A
O585       Zr588   2.425       .  S
O585        C598   1.288       .  A
O586       Zr592   2.447       .  S
O586        C595   1.292       .  A
O587       Zr592   2.448       .  S
O587        C596   1.292       .  A
Zr588       O594   2.333       .  S
Zr588       O606   2.354       .  S
Zr589       O593   2.338       .  S
Zr589       O604   2.346       .  S
Zr590       O594   2.335       .  S
Zr590       O604   2.344       .  S
Zr591       O593   2.337       .  S
Zr591       O606   2.348       .  S
Zr592       O593   2.335       .  S
Zr592       O594   2.343       .  S
Zr592       O606   2.345       .  S
Zr592       O604   2.348       .  S
C595        C793   1.438       .  S
C596        C789   1.437       .  S
C597        C805   1.481       .  S
C598        C809   1.478       .  S
C599        C797   1.477       .  S
C600        C802   1.471       .  S
C601        C788   1.438       .  S
C602        C781   1.435       .  S
H603        O604   0.965       .  S
H605        O606   0.964       .  S
N607        C612   1.358       .  A
N607        C887   1.357       .  A
N607        H639   1.041       .  S
N608        C616   1.348       .  A
N609        C614   1.354       .  A
N609        C889   1.357       .  A
N609        H640   1.040       .  S
N610        C618   1.355       .  A
C611        N883   1.359       .  A
C611        C619   1.391       .  A
C611        C627   1.427       .  A
C612        C628   1.421       .  A
C612        C620   1.384       .  A
C613        N885   1.355       .  A
C613        C621   1.387       .  A
C613        C630   1.418       .  A
C614        C629   1.416       .  A
C614        C622   1.387       .  A
C615        C627   1.424       .  A
C615        C623   1.389       .  A
C616        C630   1.409       .  A
C616        C624   1.387       .  A
C617        C625   1.388       .  A
C617        C628   1.409       .  A
C618        C626   1.388       .  A
C618        C629   1.421       .  A
C619        C896   1.376   1_545  A
C619        H631   1.081       .  S
C620        C895   1.378       .  A
C620        H632   1.082       .  S
C621        C898   1.376   1_545  A
C621        H633   1.082       .  S
C622        C897   1.375       .  A
C622        H634   1.082       .  S
C623        H635   1.078       .  S
C624        H636   1.082       .  S
C625        H637   1.082       .  S
C626        H638   1.081       .  S
C627        C798   1.503       .  S
C628        C810   1.494       .  S
C629        C806   1.499       .  S
C630        C801   1.488       .  S
O641       Zr677   2.445   1_556  S
O641        C652   1.292       .  A
O642       Zr676   2.436   1_556  S
O642        C653   1.290       .  A
O643        C654   1.292       .  A
O644       Zr649   2.445       .  S
O644        C655   1.292       .  A
O645       Zr679   2.438   1_556  S
O645        C655   1.291       .  A
O646       Zr678   2.430       .  S
O646        C654   1.289       .  A
O647       Zr649   2.442       .  S
O647        C653   1.291       .  A
O648       Zr925   2.436       .  S
O648        C652   1.290       .  A
Zr649       O924   2.445   1_545  S
Zr649       O650   2.342       .  S
Zr649       O935   2.348   1_545  S
O650       Zr676   2.339   1_556  S
O650       Zr679   2.339   1_556  S
O651       Zr954   2.342       .  S
C652        C777   1.437       .  S
C653        C776   1.434       .  S
C654        C768   1.433       .  S
C655        C772   1.436       .  S
H656        O657   0.965       .  S
O657       Zr678   2.346   1_545  S
H658        O659   0.967       .  S
O659       Zr925   2.344       .  S
O659       Zr677   2.342   1_556  S
O659       Zr955   2.350   1_556  S
O660       Zr676   2.429       .  S
O660        C683   1.289       .  A
O661       Zr677   2.443       .  S
O661        C684   1.292       .  A
O662       Zr678   2.468   1_545  S
O662        C685   1.297       .  A
O663       Zr679   2.444       .  S
O663        C686   1.293       .  A
O664       Zr955   2.431       .  S
O664        C687   1.290       .  A
O665       Zr954   2.469       .  S
O665        C688   1.298       .  A
O666        C689   1.290       .  A
O667       Zr680   2.448   1_545  S
O667        C690   1.292       .  A
O668       Zr678   2.445   1_554  S
O668        C689   1.292       .  A
O669       Zr679   2.427       .  S
O669        C690   1.288       .  A
O670        C685   1.288       .  A
O671        C688   1.291       .  A
O672       Zr677   2.460       .  S
O672        C687   1.297       .  A
O673       Zr676   2.429       .  S
O673        C686   1.289       .  A
O674       Zr680   2.435   1_545  S
O674        C683   1.290       .  A
O675       Zr956   2.437       .  S
O675        C684   1.290       .  A
Zr676       O694   2.341       .  S
Zr677       O681   2.340       .  S
Zr678       O941   2.462       .  S
Zr678       O927   2.347       .  S
Zr678       O682   2.342   1_566  S
Zr678       O968   2.343   1_556  S
Zr679       O940   2.434   1_545  S
Zr679       O935   2.349   1_544  S
Zr679       O957   2.339   1_545  S
Zr679       O694   2.339       .  S
Zr680       O951   2.438       .  S
Zr680       O957   2.337       .  S
Zr680       O694   2.343   1_565  S
O681       Zr955   2.342       .  S
O681       Zr956   2.338       .  S
C683        C748   1.427       .  S
C684        C744   1.434       .  S
C685        C758   1.472       .  S
C686        C762   1.469       .  S
C687        C749   1.480       .  S
C688        C754   1.484       .  S
C689        C737   1.437       .  S
C690        C733   1.433       .  S
H691        O692   0.965       .  S
O692       Zr954   2.347   1_554  S
H693        O694   0.966       .  S
N695        C700   1.356       .  A
N695        C699   1.354       .  A
N695        H727   1.037       .  S
N696        C703   1.352       .  A
N696        C704   1.352       .  A
N697        C702   1.353   1_554  A
N697        C701   1.356   1_554  A
N697        H728   1.041       .  S
N698        C705   1.355       .  A
N698        C706   1.356       .  A
C699        C707   1.385       .  A
C699        C715   1.416       .  A
C700        C716   1.425       .  A
C700        C708   1.391       .  A
C701        C709   1.387       .  A
C701        C718   1.419   1_556  A
C702        C717   1.415   1_556  A
C702        C710   1.387       .  A
C703        C715   1.415       .  A
C703        C711   1.387       .  A
C704        C718   1.411       .  A
C704        C712   1.386       .  A
C705        C713   1.387       .  A
C705        C716   1.421       .  A
C706        C714   1.386       .  A
C706        C717   1.423       .  A
C707        C708   1.369       .  A
C707        H719   1.082       .  S
C708        H720   1.079       .  S
C709        C710   1.377       .  A
C709        H721   1.082       .  S
C710        H722   1.082       .  S
C711        C712   1.371       .  A
C711        H723   1.082       .  S
C712        H724   1.082       .  S
C713        C714   1.376       .  A
C713        H725   1.081       .  S
C714        H726   1.081       .  S
C715        C761   1.492       .  S
C716        C757   1.499       .  S
C717        C753   1.502       .  S
C718        C750   1.497   1_554  S
C729        C741   1.465       .  S
C729        C745   1.460       .  S
C729        C816   1.465       .  S
C730        C736   1.465       .  S
C730        C740   1.468   1_545  S
C730       C1100   1.470   1_545  S
C730        C828   1.468       .  S
C731        C773   1.466       .  S
C731        C780   1.469       .  S
C731        C785   1.471       .  S
C732        C765   1.471       .  S
C732        C769   1.468       .  S
C732       C1068   1.468       .  S
C732        C796   1.471       .  S
C733        C734   1.205       .  T
C734        C735   1.410       .  S
C735        C736   1.206       .  T
C737        C738   1.207       .  T
C738        C739   1.413       .  S
C739        C740   1.207       .  T
C741        C742   1.206       .  T
C742        C743   1.410       .  S
C743        C744   1.205       .  T
C745        C746   1.202       .  T
C746        C747   1.405       .  S
C747        C748   1.201       .  T
C749        C750   1.344   1_554  D
C749        H751   1.087       .  S
C750        H752   1.087       .  S
C753        C754   1.345   1_554  D
C753        H755   1.087       .  S
C754        H756   1.086       .  S
C757        C758   1.349   1_554  D
C757        H759   1.086       .  S
C758        H760   1.085       .  S
C761        C762   1.342       .  D
C761        H763   1.087       .  S
C762        H764   1.086   1_554  S
C765        C766   1.209       .  T
C766        C767   1.417       .  S
C767       C1044   1.209       .  T
C768       C1043   1.205       .  T
C769        C770   1.207       .  T
C770        C771   1.412       .  S
C771       C1048   1.206       .  T
C772       C1047   1.206       .  T
C773        C774   1.206       .  T
C774        C775   1.411       .  S
C775        C776   1.205       .  T
C777        C778   1.207       .  T
C781        C782   1.206       .  T
C782        C783   1.411       .  S
C783        C784   1.206       .  T
C785        C786   1.209       .  T
C786        C787   1.415       .  S
C787        C788   1.208       .  T
C789        C790   1.207       .  T
C790        C791   1.413       .  S
C791        C792   1.207       .  T
C792       C1008   1.468   1_545  S
C793        C794   1.208       .  T
C794        C795   1.415       .  S
C795        C796   1.209       .  T
C797        C798   1.347       .  D
C797        H799   1.085       .  S
C798        H800   1.086       .  S
C801        C802   1.341       .  D
C801        H803   1.087       .  S
C802        H804   1.086       .  S
C805        C806   1.346       .  D
C805        H807   1.086       .  S
C806        H808   1.087       .  S
C809        C810   1.340       .  D
C809        H811   1.086       .  S
C810        H812   1.087       .  S
C813        C814   1.205       .  T
C814        C815   1.411       .  S
C815        C816   1.206       .  T
C817        C818   1.208       .  T
C818        C819   1.414       .  S
C819        C820   1.207       .  T
C821        C822   1.206       .  T
C822        C823   1.413       .  S
C823        C824   1.207       .  T
C824       C1006   1.468       .  S
C825        C826   1.206       .  T
C826        C827   1.413       .  S
C827        C828   1.207       .  T
O829       Zr865   2.446       .  S
O829        C840   1.292       .  A
O830       Zr864   2.439       .  S
O830        C841   1.291       .  A
O831       Zr837   2.432       .  S
O831        C842   1.290       .  A
O832       Zr837   2.447       .  S
O832        C843   1.292       .  A
O833       Zr867   2.453       .  S
O833        C843   1.294       .  A
O834       Zr866   2.441       .  S
O834        C842   1.292       .  A
O835       Zr837   2.449       .  S
O835        C841   1.292       .  A
O836       Zr837   2.446       .  S
O836        C840   1.292       .  A
Zr837       O838   2.338       .  S
Zr837       O839   2.346       .  S
Zr837       O847   2.345       .  S
Zr837       O845   2.354       .  S
O838       Zr864   2.349       .  S
O838       Zr867   2.343       .  S
O839       Zr865   2.338       .  S
O839       Zr866   2.345       .  S
C840       C1101   1.442       .  S
C841       C1097   1.439       .  S
C842       C1089   1.430       .  S
C843       C1096   1.444       .  S
H844        O845   0.965       .  S
O845       Zr864   2.339       .  S
O845       Zr866   2.350       .  S
H846        O847   0.965       .  S
O847       Zr865   2.346       .  S
O847       Zr867   2.347       .  S
O848       Zr864   2.440       .  S
O848        C871   1.291       .  A
O849       Zr865   2.444       .  S
O849        C872   1.291       .  A
O850       Zr866   2.443       .  S
O850        C873   1.292       .  A
O851       Zr867   2.471       .  S
O851        C874   1.299       .  A
O852       Zr867   2.472       .  S
O852        C875   1.298       .  A
O853       Zr866   2.450       .  S
O853        C876   1.295       .  A
O854       Zr868   2.437       .  S
O854        C877   1.290       .  A
O855       Zr868   2.443       .  S
O855        C878   1.291       .  A
O856       Zr866   2.447       .  S
O856        C877   1.292       .  A
O857       Zr867   2.434       .  S
O857        C878   1.290       .  A
O858       Zr864   2.450       .  S
O858        C873   1.294       .  A
O859       Zr865   2.431       .  S
O859        C876   1.289       .  A
O860       Zr865   2.431       .  S
O860        C875   1.290       .  A
O861       Zr864   2.427       .  S
O861        C874   1.289       .  A
O862       Zr868   2.439       .  S
O862        C871   1.291       .  A
O863       Zr868   2.442       .  S
O863        C872   1.291       .  A
Zr864       O870   2.336       .  S
Zr864       O882   2.348       .  S
Zr865       O869   2.340       .  S
Zr865       O880   2.344       .  S
Zr866       O870   2.339       .  S
Zr866       O880   2.337       .  S
Zr867       O869   2.344       .  S
Zr867       O882   2.350       .  S
Zr868       O869   2.337       .  S
Zr868       O870   2.340       .  S
Zr868       O882   2.344       .  S
Zr868       O880   2.344       .  S
C871       C1069   1.436       .  S
C872       C1065   1.437       .  S
C873       C1081   1.482       .  S
C874       C1085   1.481       .  S
C875       C1073   1.479       .  S
C876       C1078   1.474       .  S
C877       C1064   1.438       .  S
C878       C1057   1.433       .  S
H879        O880   0.965       .  S
H881        O882   0.965       .  S
N883        C888   1.359   1_545  A
N883        H915   1.040   1_545  S
N884        C892   1.350       .  A
N885        C890   1.354   1_545  A
N885        H916   1.041       .  S
N886        C894   1.354       .  A
C887        C895   1.391       .  A
C887        C903   1.427       .  A
C888        C904   1.422       .  A
C888        C896   1.384       .  A
C889        C897   1.387       .  A
C889        C906   1.420       .  A
C890        C905   1.414       .  A
C890        C898   1.386       .  A
C891        C903   1.425       .  A
C891        C899   1.389       .  A
C892        C906   1.411       .  A
C892        C900   1.387       .  A
C893        C901   1.388       .  A
C893        C904   1.411       .  A
C894        C902   1.387       .  A
C894        C905   1.418       .  A
C895        H907   1.081       .  S
C896        H908   1.082       .  S
C897        H909   1.082       .  S
C898        H910   1.082       .  S
C899        H911   1.077       .  S
C900        H912   1.082       .  S
C901        H913   1.082       .  S
C902        H914   1.082       .  S
C903       C1074   1.504       .  S
C904       C1086   1.497       .  S
C905       C1082   1.498       .  S
C906       C1077   1.493       .  S
O917       Zr953   2.445       .  S
O917        C928   1.292       .  A
O918       Zr952   2.441   1_556  S
O918        C929   1.291       .  A
O919        C930   1.294       .  A
O920       Zr925   2.445       .  S
O920        C931   1.292       .  A
O921       Zr955   2.437   1_556  S
O921        C931   1.291       .  A
O922       Zr954   2.435       .  S
O922        C930   1.290       .  A
O923       Zr925   2.436       .  S
O923        C929   1.290       .  A
O924        C928   1.292       .  A
Zr925       O926   2.345       .  S
O926       Zr952   2.338   1_556  S
O926       Zr955   2.339   1_556  S
C928       C1053   1.440       .  S
C929       C1052   1.434       .  S
C930       C1044   1.440       .  S
C931       C1048   1.435       .  S
H932        O933   0.965       .  S
O933       Zr954   2.348       .  S
H934        O935   0.966       .  S
O935       Zr953   2.344       .  S
O936       Zr952   2.442       .  S
O936        C959   1.291       .  A
O937       Zr953   2.444   1_554  S
O937        C960   1.292       .  A
O938       Zr954   2.460       .  S
O938        C961   1.295       .  A
O939       Zr955   2.451       .  S
O939        C962   1.294       .  A
O940        C963   1.290       .  A
O941        C964   1.297       .  A
O942        C965   1.292       .  A
O943       Zr956   2.444       .  S
O943        C966   1.291       .  A
O944       Zr954   2.440   1_554  S
O944        C965   1.291       .  A
O945       Zr955   2.430       .  S
O945        C966   1.289       .  A
O946        C961   1.290       .  A
O947        C964   1.291       .  A
O948       Zr953   2.452   1_554  S
O948        C963   1.295       .  A
O949       Zr952   2.422       .  S
O949        C962   1.288       .  A
O950       Zr956   2.433       .  S
O950        C959   1.289       .  A
O951        C960   1.291       .  A
Zr952       O970   2.338       .  S
Zr953       O957   2.340   1_556  S
Zr954       O958   2.348   1_556  S
Zr955       O970   2.337       .  S
Zr956       O970   2.344       .  S
C959       C1024   1.432       .  S
C960       C1020   1.436       .  S
C961       C1034   1.471       .  S
C962       C1038   1.471       .  S
C963       C1025   1.478       .  S
C964       C1030   1.480       .  S
C965       C1013   1.440       .  S
C966       C1009   1.434       .  S
H967        O968   0.965       .  S
H969        O970   0.965       .  S
N971        C976   1.356       .  A
N971        C975   1.355       .  A
N971       H1003   1.037       .  S
N972        C979   1.352       .  A
N972        C980   1.352       .  A
N973        C978   1.353   1_554  A
N973        C977   1.355   1_554  A
N973       H1004   1.041       .  S
N974        C981   1.355       .  A
N974        C982   1.356       .  A
C975        C983   1.385       .  A
C975        C991   1.417       .  A
C976        C992   1.425       .  A
C976        C984   1.391       .  A
C977        C985   1.388       .  A
C977        C994   1.418   1_556  A
C978        C993   1.414   1_556  A
C978        C986   1.386       .  A
C979        C991   1.417       .  A
C979        C987   1.387       .  A
C980        C994   1.411       .  A
C980        C988   1.385       .  A
C981        C989   1.387       .  A
C981        C992   1.421       .  A
C982        C990   1.386       .  A
C982        C993   1.421       .  A
C983        C984   1.370       .  A
C983        H995   1.082       .  S
C984        H996   1.079       .  S
C985        C986   1.375       .  A
C985        H997   1.082       .  S
C986        H998   1.082       .  S
C987        C988   1.371       .  A
C987        H999   1.082       .  S
C988       H1000   1.082       .  S
C989        C990   1.373       .  A
C989       H1001   1.081       .  S
C990       H1002   1.081       .  S
C991       C1037   1.494       .  S
C992       C1033   1.497       .  S
C993       C1029   1.499       .  S
C994       C1026   1.495   1_554  S
C1005      C1017   1.467       .  S
C1005      C1021   1.463       .  S
C1005      C1092   1.463       .  S
C1006      C1012   1.467       .  S
C1006      C1016   1.471       .  S
C1006      C1104   1.473       .  S
C1007      C1049   1.466       .  S
C1007      C1056   1.471       .  S
C1007      C1061   1.469       .  S
C1008      C1041   1.465       .  S
C1008      C1045   1.468   1_565  S
C1008      C1072   1.468       .  S
C1009      C1010   1.205       .  T
C1010      C1011   1.411       .  S
C1011      C1012   1.206       .  T
C1013      C1014   1.208       .  T
C1014      C1015   1.416       .  S
C1015      C1016   1.209       .  T
C1017      C1018   1.207       .  T
C1018      C1019   1.412       .  S
C1019      C1020   1.206       .  T
C1021      C1022   1.205       .  T
C1022      C1023   1.409       .  S
C1023      C1024   1.204       .  T
C1025      C1026   1.344   1_554  D
C1025      H1027   1.086       .  S
C1026      H1028   1.087       .  S
C1029      C1030   1.344   1_554  D
C1029      H1031   1.087       .  S
C1030      H1032   1.086       .  S
C1033      C1034   1.346   1_554  D
C1033      H1035   1.086       .  S
C1034      H1036   1.086       .  S
C1037      C1038   1.342       .  D
C1037      H1039   1.087       .  S
C1038      H1040   1.086   1_554  S
C1041      C1042   1.206       .  T
C1042      C1043   1.410       .  S
C1045      C1046   1.207       .  T
C1046      C1047   1.413       .  S
C1049      C1050   1.206       .  T
C1050      C1051   1.411       .  S
C1051      C1052   1.205       .  T
C1053      C1054   1.209       .  T
C1057      C1058   1.205       .  T
C1058      C1059   1.410       .  S
C1059      C1060   1.206       .  T
C1061      C1062   1.208       .  T
C1062      C1063   1.414       .  S
C1063      C1064   1.207       .  T
C1065      C1066   1.207       .  T
C1066      C1067   1.413       .  S
C1067      C1068   1.207       .  T
C1069      C1070   1.206       .  T
C1070      C1071   1.413       .  S
C1071      C1072   1.207       .  T
C1073      C1074   1.347       .  D
C1073      H1075   1.084       .  S
C1074      H1076   1.086       .  S
C1077      C1078   1.341       .  D
C1077      H1079   1.087       .  S
C1078      H1080   1.086       .  S
C1081      C1082   1.346       .  D
C1081      H1083   1.086       .  S
C1082      H1084   1.087       .  S
C1085      C1086   1.342       .  D
C1085      H1087   1.086       .  S
C1086      H1088   1.087       .  S
C1089      C1090   1.203       .  T
C1090      C1091   1.408       .  S
C1091      C1092   1.204       .  T
C1093      C1094   1.211       .  T
C1094      C1095   1.419       .  S
C1095      C1096   1.211       .  T
C1097      C1098   1.208       .  T
C1098      C1099   1.415       .  S
C1099      C1100   1.209       .  T
C1101      C1102   1.210       .  T
C1102      C1103   1.418       .  S
C1103      C1104   1.210       .  T
