geometry optimzed in LAMMPS
_audit_creation_date              2020-11-30 
_audit_creation_method            'lammps2cif' 
_symmetry_space_group_name_H-M    'P1' 
_symmetry_Int_Tables_number       1 
_symmetry_cell_setting            triclinic 
loop_ 
_symmetry_equiv_pos_as_xyz 
  x,y,z 
_cell_length_a                    38.49740671 
_cell_length_b                    38.38185537601515 
_cell_length_c                    22.336015422498672 
_cell_angle_alpha                 89.82164088871939 
_cell_angle_beta                  90.57136101854427 
_cell_angle_gamma                 120.2569629701719 
loop_ 
_atom_site_label 
_atom_site_type_symbol 
_atom_site_fract_x 
_atom_site_fract_y 
_atom_site_fract_z 
_atom_site_charge 
C1          C  0.03552681  0.07540003  0.24113509     0.80600
N2          N  0.01499102  0.09543232  0.24498050    -0.77700
C3          C  0.03450930  0.13629431  0.24301515     0.83000
N4          N  0.07521043  0.15739495  0.23603803    -0.77700
C5          C  0.09599661  0.13736944  0.23183007     0.83100
N6          N  0.07603626  0.09647458  0.23490629    -0.79400
C7          C  0.03484522  0.36185327  0.41496768     0.80600
N8          N  0.07550113  0.38216388  0.41931589    -0.77700
C9          C  0.09615842  0.36214261  0.41809178     0.83000
N10         N  0.07575931  0.32115882  0.41209007    -0.77700
C11         C  0.03479825  0.30057961  0.40722181     0.83100
N12         N  0.01467738  0.32115738  0.40895569    -0.79400
C13         C  0.39799928  0.29192751  0.23458523     0.80600
N14         N  0.35754313  0.27144011  0.22701616    -0.77700
C15         C  0.33702739  0.23058172  0.22381273     0.83000
N16         N  0.35714568  0.20991250  0.22901845    -0.77700
C17         C  0.39786161  0.23046558  0.23706704     0.83100
N18         N  0.41796317  0.27134649  0.23940554    -0.79400
O19         O  0.47424778  0.23418730  0.39781227    -0.57400
C20         C  0.41753444  0.10712685  0.38735144     0.75200
O21         O  0.45751261  0.22683297  0.25131731    -0.58600
C22         C  0.01223720  0.25755717  0.39050954     0.75200
C23         C  0.01209684  0.15643537  0.25976908     0.77500
Cd24       Cd  0.46495045  0.18205403  0.32349255     1.37500
O25         O  0.45537387  0.12773365  0.39343731    -0.57400
O26         O  0.02862858  0.18887405  0.28932999    -0.56300
C27         C  0.41963176  0.20978477  0.25521798     0.77500
O28         O  0.47584633  0.14347993  0.24415503    -0.58600
O29         O  0.40105324  0.12396560  0.36021807    -0.57100
O30         O  0.02876146  0.24115008  0.36309067    -0.57100
O31         O  0.40221989  0.17640116  0.28219161    -0.56200
C32         C  0.10906588  0.00317232  0.08471824     0.80600
N33         N  0.12958953  0.04385369  0.09028472    -0.77700
C34         C  0.17032564  0.06448791  0.09323374     0.83000
N35         N  0.19084106  0.04410714  0.09009387    -0.77700
C36         C  0.17026571  0.00311438  0.08398737     0.83100
N37         N  0.12603315  0.48506869  0.07516688    -0.79400
C38         C  0.32420546  0.36857384  0.08971084     0.80600
N39         N  0.30362655  0.32802505  0.09730460    -0.77700
C40         C  0.26284875  0.30739240  0.09811019     0.83000
N41         N  0.24239758  0.32758679  0.09095603    -0.77700
C42         C  0.26299970  0.36842444  0.08344099     0.83100
N43         N  0.30379888  0.38862907  0.08304319    -0.79400
O44         O  0.18594191  0.13310006  0.08047263    -0.57400
C45         C  0.24233444  0.26474963  0.11534951     0.75200
O46         O  0.16491923  0.15420824  0.24174276    -0.58600
C47         C  0.19041180  0.10722176  0.11012844     0.75200
C48         C  0.29441918  0.21036338  0.20701018     0.77500
Cd49       Cd  0.21563514  0.18516550  0.16093933     1.37500
O50         O  0.23814980  0.23691365  0.07996556    -0.57400
O51         O  0.28317571  0.19505099  0.15542262    -0.56300
C52         C  0.13826743  0.15821886  0.21367660     0.77500
O53         O  0.26815676  0.21110374  0.24025313    -0.58600
O54         O  0.23151327  0.25489456  0.16893842    -0.57100
O55         O  0.20936654  0.11872891  0.15927827    -0.57100
O56         O  0.14869196  0.17771901  0.16517454    -0.56200
C57         C  0.39343491  0.00225493  0.40949465     0.80600
N58         N  0.34862762  0.47963381  0.41701521    -0.77700
C59         C  0.33304481  0.00346790  0.41629744     0.83000
N60         N  0.35399520  0.04444142  0.41056851    -0.77700
C61         C  0.39474804  0.06424580  0.40406764     0.83100
N62         N  0.41417962  0.04296685  0.40409896    -0.79400
O63         O  0.26374206  0.44146920  0.42347671    -0.57400
C64         C  0.13906622  0.38469413  0.43415247     0.75200
O65         O  0.25761226  0.42764502  0.07216550    -0.58600
C66         C  0.28619160  0.47911018  0.43134541     0.75200
C67         C  0.18699640  0.48281201  0.05875849     0.77500
Cd68       Cd  0.21336698  0.43395895  0.49790348     1.37500
O69         O  0.16062598  0.42207567  0.42355567    -0.57400
O70         O  0.21817315  0.49854341  0.52818079    -0.56300
C71         C  0.24234600  0.39001613  0.06430169     0.77500
O72         O  0.16887999  0.44477366  0.06295236    -0.58600
O73         O  0.15442139  0.36990793  0.96797075    -0.57100
O74         O  0.27090534  0.49718499  0.95420596    -0.57100
O75         O  0.20916263  0.37173380  0.53857075    -0.56200
C76         C  0.00072353  0.47075794  0.08686561     0.20700
C77         C  0.46791164  0.47582973  0.08158684    -0.39200
C78         C  0.43125553  0.43941897  0.08330723     0.19700
C79         C  0.42910275  0.40233899  0.08619850     0.22300
C80         C  0.46357869  0.39876569  0.08668452    -0.39700
C81         C  0.99846446  0.43359462  0.08801150     0.21100
N82         N  0.04243396  0.99906468  0.08447626    -0.33000
C83         C  0.06141258  0.48260541  0.08225821    -0.10500
C84         C  0.03721258  0.44069135  0.08481107    -0.29300
N85         N  0.39071015  0.37236064  0.08897230    -0.45900
C86         C  0.36831072  0.39053164  0.08756449    -0.04300
C87         C  0.39251671  0.43232801  0.08377321    -0.22600
H88         H  0.47110998  0.00128893  0.08200622     0.19300
H89         H  0.46197612  0.36981922  0.08902661     0.18000
H90         H  0.04669864  0.41850802  0.08480874     0.14300
H91         H  0.38305776  0.45451841  0.08212429     0.14200
H92         H  0.05258444  0.02982187  0.08887638     0.32400
H93         H  0.38042184  0.34148010  0.09178053     0.35100
C94         C  0.46180409  0.39421766  0.42168021     0.20700
C95         C  0.42404978  0.39109218  0.42666210    -0.39200
C96         C  0.42406178  0.42754154  0.42238466     0.19700
C97         C  0.45899145  0.46415966  0.41394594     0.22300
C98         C  0.99764038  0.46818763  0.42801546    -0.39700
C99         C  0.99821002  0.43210024  0.42375040     0.21100
N100        N  0.46996351  0.36408299  0.42293829    -0.33000
C101        C  0.01268193  0.38370102  0.41719085    -0.10500
C102        C  0.03005039  0.42529306  0.42454785    -0.29300
N103        N  0.45543808  0.99747179  0.41171295    -0.45900
C104        C  0.41066170  0.47672332  0.41589297    -0.05200
C105        C  0.39275761  0.43514345  0.42395788    -0.22600
H106        H  0.39671774  0.36244329  0.43285904     0.19300
H107        H  0.03053590  0.00135627  0.41374290     0.18000
H108        H  0.06164371  0.44751369  0.42958175     0.14300
H109        H  0.36115094  0.41343962  0.42966378     0.14200
H110        H  0.44942853  0.33334465  0.42807436     0.32400
H111        H  0.47639503  0.02834197  0.41201757     0.35100
C112        C  0.43261799  0.39721030  0.24488115     0.20700
C113        C  0.42963784  0.43209024  0.24799296    -0.39200
C114        C  0.46631001  0.46854513  0.25112761     0.19700
C115        C  0.00222569  0.46980892  0.25947066     0.22300
C116        C  0.00498122  0.43486792  0.25719494    -0.39700
C117        C  0.46938010  0.39884521  0.24543948     0.21100
N118        N  0.40234485  0.35887768  0.24069510    -0.33000
C119        C  0.42011097  0.33609042  0.23889208    -0.10500
C120        C  0.46184731  0.35993275  0.24196509    -0.29300
N121        N  0.03167472  0.00849805  0.24701742    -0.45900
C122        C  0.01373186  0.03111156  0.24344860    -0.05200
C123        C  0.47056526  0.00594456  0.23874822    -0.22600
H124        H  0.40096384  0.43094391  0.24773181     0.19300
H125        H  0.03357184  0.43584298  0.25828564     0.18000
H126        H  0.48372915  0.35012390  0.24130050     0.14300
H127        H  0.44840407  0.01540036  0.23826733     0.14200
H128        H  0.37160601  0.34888847  0.23917417     0.32400
H129        H  0.06251276  0.01874931  0.24861311     0.35100
C130        C  0.03565058  0.07610620  0.73596465     0.80600
N131        N  0.01563687  0.09613964  0.74572971    -0.77700
C132        C  0.03535439  0.13701871  0.74672480     0.83000
N133        N  0.07586421  0.15826256  0.73738736    -0.77700
C134        C  0.09607289  0.13813324  0.72723963     0.83100
N135        N  0.07584209  0.09719650  0.72678725    -0.79400
C136        C  0.03422053  0.36202285  0.91567652     0.80600
N137        N  0.07489298  0.38232758  0.91952545    -0.77700
C138        C  0.09545204  0.36224239  0.92035517     0.83000
N139        N  0.07494544  0.32117493  0.91658349    -0.77700
C140        C  0.03397344  0.30053795  0.91218664     0.83100
N141        N  0.01386454  0.32117318  0.91212528    -0.79400
C142        C  0.39822546  0.29186142  0.73871585     0.80600
N143        N  0.35793577  0.27134390  0.72913436    -0.77700
C144        C  0.33751628  0.23048700  0.72571176     0.83000
N145        N  0.35756582  0.20986963  0.73237955    -0.77700
C146        C  0.39812121  0.23046829  0.74195947     0.83100
N147        N  0.41814648  0.27132640  0.74486829    -0.79400
O148        O  0.47450323  0.23554538  0.90080154    -0.57400
C149        C  0.41726788  0.10738828  0.89259165     0.75200
O150        O  0.45732464  0.22601952  0.75516745    -0.58600
C151        C  0.01182036  0.25765866  0.89510870     0.75200
C152        C  0.01289534  0.15667310  0.76575353     0.77500
Cd153      Cd  0.46484411  0.18220771  0.82886419     1.37500
O154        O  0.45520738  0.12765029  0.89793006    -0.57400
O155        O  0.02947676  0.18941095  0.79465362    -0.56300
C156        C  0.41962156  0.20973357  0.76065533     0.77500
O157        O  0.47382871  0.13911465  0.75616772    -0.58600
O158        O  0.40084262  0.12459507  0.86633194    -0.57100
O159        O  0.02821937  0.24273145  0.86393115    -0.57100
O160        O  0.40221236  0.17710470  0.78944978    -0.56200
C161        C  0.10775837  0.00271302  0.58345587     0.80600
N162        N  0.12841866  0.04333974  0.59029068    -0.77700
C163        C  0.16917180  0.06373338  0.59387948     0.83000
N164        N  0.18951330  0.04325324  0.58987688    -0.77700
C165        C  0.16884513  0.00238998  0.58243905     0.83100
N166        N  0.12550567  0.48490428  0.57729119    -0.79400
C167        C  0.32434000  0.36793202  0.59009182     0.80600
N168        N  0.30381772  0.32744186  0.59803566    -0.77700
C169        C  0.26308519  0.30690951  0.59992725     0.83000
N170        N  0.24256682  0.32708024  0.59329383    -0.77700
C171        C  0.26310214  0.36784382  0.58498101     0.83100
N172        N  0.30390297  0.38797922  0.58363005    -0.79400
O173        O  0.18884994  0.13337704  0.57995550    -0.57400
C174        C  0.24271051  0.26420298  0.61643001     0.75200
O175        O  0.16556693  0.15853329  0.74164424    -0.58600
C176        C  0.18957879  0.10624949  0.61191711     0.75200
C177        C  0.29511081  0.21015568  0.70772110     0.77500
Cd178      Cd  0.21634543  0.18480235  0.66120762     1.37500
O179        O  0.24291310  0.23757067  0.58291413    -0.57400
O180        O  0.28498513  0.19798288  0.65441101    -0.56300
C181        C  0.13840571  0.15918278  0.70956696     0.77500
O182        O  0.26781606  0.20763210  0.74218998    -0.58600
O183        O  0.22750239  0.25314440  0.66780011    -0.57100
O184        O  0.20538399  0.11653342  0.66344273    -0.57100
O185        O  0.14843915  0.17485380  0.65815267    -0.56200
C186        C  0.39386900  0.00326958  0.92042364     0.80600
N187        N  0.34922700  0.48015345  0.91304414    -0.77700
C188        C  0.33267460  0.00327118  0.91949995     0.83000
N189        N  0.35325805  0.04419993  0.91270740    -0.77700
C190        C  0.39427883  0.06455498  0.90965031     0.83100
N191        N  0.41422955  0.04386666  0.91380384    -0.79400
O192        O  0.26499216  0.44134614  0.92389174    -0.57400
C193        C  0.13852371  0.38507090  0.93542317     0.75200
O194        O  0.25864294  0.42740247  0.57142598    -0.58600
C195        C  0.28645672  0.47932895  0.92807708     0.75200
C196        C  0.18613856  0.48249310  0.55790047     0.77500
Cd197      Cd  0.21395235  0.43487373  0.99641414     1.37500
O198        O  0.16024935  0.42216392  0.92273683    -0.57400
O199        O  0.22119127  0.49939316  0.03481023    -0.56300
C200        C  0.24227736  0.38946846  0.56647050     0.77500
O201        O  0.17001198  0.44496121  0.56742806    -0.58600
O202        O  0.15483439  0.36898678  0.46581847    -0.57100
O203        O  0.27186233  0.49657916  0.46144932    -0.57100
O204        O  0.21062207  0.37265519  0.03309740    -0.56200
C205        C  0.00074416  0.47123887  0.58807505     0.20700
C206        C  0.46797845  0.47501743  0.58074891    -0.39200
C207        C  0.43135535  0.43867844  0.58385994     0.19700
C208        C  0.42922045  0.40166594  0.58850434     0.22300
C209        C  0.46368874  0.39808551  0.58973363    -0.39700
C210        C  0.99851169  0.43407765  0.58788440     0.21100
N211        N  0.04107249  0.99855439  0.57596886    -0.33000
C212        C  0.06139880  0.48298543  0.58695388    -0.10500
C213        C  0.03719699  0.44111851  0.58714648    -0.29300
N214        N  0.39082977  0.37172947  0.59140327    -0.45900
C215        C  0.36842922  0.38986550  0.58828978    -0.04300
C216        C  0.39262084  0.43159213  0.58342091    -0.22600
H217        H  0.46978909  0.00118359  0.58346678     0.19300
H218        H  0.46208845  0.36918201  0.59330666     0.18000
H219        H  0.04662022  0.41889693  0.58625520     0.14300
H220        H  0.38314672  0.45372523  0.58012380     0.14200
H221        H  0.05127595  0.02937131  0.57261077     0.32400
H222        H  0.38054350  0.34089398  0.59524307     0.35100
C223        C  0.46334139  0.39535650  0.90676877     0.20700
C224        C  0.42535410  0.39193761  0.90305000    -0.39200
C225        C  0.42505985  0.42815397  0.90875174     0.19700
C226        C  0.45994405  0.46489307  0.91734502     0.22300
C227        C  0.99983551  0.47049203  0.91460366    -0.39700
C228        C  0.99947980  0.43383932  0.91417175     0.21100
N229        N  0.47181491  0.36555715  0.90211842    -0.33000
C230        C  0.01254730  0.38435503  0.91459715    -0.10500
C231        C  0.03077548  0.42628534  0.91562205    -0.29300
N232        N  0.45624821  0.99907367  0.92255658    -0.45900
C233        C  0.41144777  0.47734106  0.91188078    -0.05200
C234        C  0.39364737  0.43561858  0.90556998    -0.22600
H235        H  0.39814218  0.36330707  0.89543982     0.19300
H236        H  0.02817451  0.00054807  0.90380580     0.18000
H237        H  0.06260209  0.44824276  0.91740736     0.14300
H238        H  0.36213739  0.41384592  0.89832303     0.14200
H239        H  0.45133437  0.33494259  0.89518621     0.32400
H240        H  0.47708143  0.02996447  0.92158481     0.35100
C241        C  0.43231727  0.39706285  0.74709355     0.20700
C242        C  0.42906602  0.43182366  0.74769367    -0.39200
C243        C  0.46552713  0.46842188  0.75164896     0.19700
C244        C  0.00191512  0.47033842  0.74828408     0.22300
C245        C  0.00507165  0.43565396  0.74457425    -0.39700
C246        C  0.46912831  0.39889736  0.75077268     0.21100
N247        N  0.40226372  0.35867390  0.74245161    -0.33000
C248        C  0.42016840  0.33600599  0.74334293    -0.10500
C249        C  0.46181005  0.35999262  0.74882222    -0.29300
N250        N  0.03174471  0.00919696  0.73383277    -0.45900
C251        C  0.01384906  0.03183107  0.73681680    -0.05200
C252        C  0.47186422  0.00767940  0.74018305    -0.22600
H253        H  0.40033472  0.43048257  0.74484899     0.19300
H254        H  0.03377550  0.43708584  0.74089749     0.18000
H255        H  0.48377451  0.35029302  0.75054113     0.14300
H256        H  0.44988330  0.01735808  0.73850800     0.14200
H257        H  0.37156911  0.34858211  0.73864292     0.32400
H258        H  0.06246291  0.01941201  0.72996994     0.35100
C259        C  0.03841822  0.57542833  0.26369307     0.80600
N260        N  0.01901773  0.59632853  0.27048683    -0.77700
C261        C  0.03958519  0.63716929  0.27011642     0.83000
N262        N  0.08024315  0.65749777  0.26233501    -0.77700
C263        C  0.09995688  0.63656173  0.25499725     0.83100
N264        N  0.07884491  0.59560397  0.25616154    -0.79400
C265        C  0.03875983  0.86493653  0.41426170     0.80600
N266        N  0.07944937  0.88558913  0.41766620    -0.77700
C267        C  0.10045031  0.86595737  0.41635529     0.83000
N268        N  0.08035496  0.82498013  0.41085689    -0.77700
C269        C  0.03937514  0.80400778  0.40743439     0.83100
N270        N  0.01880367  0.82414596  0.40948100    -0.79400
C271        C  0.39489545  0.79090285  0.26153227     0.80600
N272        N  0.35443096  0.77118963  0.25394237    -0.77700
C273        C  0.33246203  0.73029894  0.25522267     0.83000
N274        N  0.35142983  0.70880302  0.26495882    -0.77700
C275        C  0.39221631  0.72864583  0.27265305     0.83100
N276        N  0.41367513  0.76951948  0.27060115    -0.79400
O277        O  0.49086963  0.73369366  0.41907720    -0.57400
C278        C  0.41362280  0.60364537  0.38677534     0.75200
O279        O  0.44126691  0.70866669  0.25822200    -0.58600
C280        C  0.01716379  0.76079413  0.39272663     0.75200
C281        C  0.01807165  0.65766154  0.28878540     0.77500
Cd282      Cd  0.46610909  0.68212556  0.33829978     1.37500
O283        O  0.44539169  0.62859655  0.41496064    -0.57400
O284        O  0.02339944  0.67204643  0.34107977    -0.56300
C285        C  0.41354086  0.70759054  0.29013118     0.77500
O286        O  0.48819812  0.65367729  0.25754737    -0.58600
O287        O  0.40465566  0.61626812  0.34018451    -0.57100
O288        O  0.02910055  0.74704389  0.35152139    -0.57100
O289        O  0.40812395  0.69156387  0.34128977    -0.56200
C290        C  0.10550798  0.50500845  0.07978708     0.80600
N291        N  0.12595661  0.54580999  0.08374549    -0.77700
C292        C  0.16677896  0.56691683  0.08347723     0.83000
N293        N  0.18736196  0.54666333  0.07834891    -0.77700
C294        C  0.16681876  0.50553250  0.07392820     0.83100
N295        N  0.12947816  0.98299169  0.08171837    -0.79400
C296        C  0.32596102  0.86423989  0.08553013     0.80600
N297        N  0.30535699  0.82348892  0.09088172    -0.77700
C298        C  0.26450925  0.80271243  0.09047298     0.83000
N299        N  0.24413942  0.82312523  0.08403001    -0.77700
C300        C  0.26480552  0.86412540  0.07830230     0.83100
N301        N  0.30558216  0.88432853  0.07943335    -0.79400
O302        O  0.16868203  0.62945405  0.09988570    -0.57400
C303        C  0.24361359  0.75961893  0.10659120     0.75200
O304        O  0.16399625  0.64103412  0.24360334    -0.58600
C305        C  0.18722159  0.61002021  0.10021018     0.75200
C306        C  0.28985825  0.71077491  0.23648851     0.77500
Cd307      Cd  0.21572216  0.68387418  0.16881270     1.37500
O308        O  0.25834157  0.73731027  0.09558240    -0.57400
O309        O  0.27103057  0.67552404  0.21504382    -0.56300
C310        C  0.14219031  0.65674105  0.23563947     0.77500
O311        O  0.27149514  0.73032069  0.23526233    -0.58600
O312        O  0.21227331  0.74420834  0.13794103    -0.57100
O313        O  0.22229076  0.62810052  0.12233693    -0.57100
O314        O  0.15708752  0.68837681  0.20442673    -0.56200
C315        C  0.38922454  0.49921895  0.41297020     0.80600
N316        N  0.35294539  0.98268054  0.41529097    -0.77700
C317        C  0.32864633  0.50031388  0.41428391     0.83000
N318        N  0.34963670  0.54114376  0.40701557    -0.77700
C319        C  0.39049204  0.56089290  0.40287137     0.83100
N320        N  0.41001961  0.53980997  0.40610663    -0.79400
O321        O  0.26848111  0.94416556  0.42535439    -0.57400
C322        C  0.14329850  0.88868540  0.43278313     0.75200
O323        O  0.26135339  0.92447938  0.06883883    -0.58600
C324        C  0.29062851  0.98171655  0.43406390     0.75200
C325        C  0.19069848  0.98080441  0.06782203     0.77500
Cd326      Cd  0.21704809  0.93448510  0.49943425     1.37500
O327        O  0.16339097  0.92681097  0.42988212    -0.57400
O328        O  0.22280721  0.99750633  0.53971392    -0.56300
C329        C  0.24447568  0.88663237  0.06165242     0.77500
O330        O  0.17338099  0.94281003  0.07267482    -0.58600
O331        O  0.15717300  0.87095636  0.96418804    -0.57100
O332        O  0.27177186  0.99769164  0.95563798    -0.57100
O333        O  0.21061987  0.86966890  0.53290811    -0.56200
C334        C  0.00407906  0.96896179  0.08123125     0.20700
C335        C  0.46959792  0.97235543  0.08224544    -0.39200
C336        C  0.43298705  0.93581285  0.08288434     0.19700
C337        C  0.43099960  0.89877428  0.08419175     0.22300
C338        C  0.46551948  0.89535597  0.08427382    -0.39700
C339        C  0.00214706  0.93206234  0.07649026     0.21100
N340        N  0.03902162  0.50072054  0.08348443    -0.33000
C341        C  0.06498704  0.98111375  0.08167833    -0.10500
C342        C  0.04094904  0.93937469  0.07641086    -0.29300
N343        N  0.39268222  0.86858689  0.08574061    -0.45900
C344        C  0.37009721  0.88652784  0.08515274    -0.04300
C345        C  0.39414397  0.92844489  0.08336619    -0.22600
H346        H  0.46952139  0.50479136  0.07989246     0.19300
H347        H  0.46402442  0.86644041  0.08551401     0.18000
H348        H  0.05055422  0.91733841  0.07373320     0.14300
H349        H  0.38450421  0.95050688  0.08259007     0.14200
H350        H  0.04927320  0.53161646  0.08223891     0.32400
H351        H  0.38255335  0.83769759  0.08696863     0.35100
C352        C  0.46609649  0.89708348  0.41421025     0.20700
C353        C  0.42804080  0.89362610  0.41267142    -0.39200
C354        C  0.42810118  0.93019679  0.41229912     0.19700
C355        C  0.46334247  0.96723005  0.41314914     0.22300
C356        C  0.00303463  0.97243015  0.41565554    -0.39700
C357        C  0.00302968  0.93595481  0.41690398     0.21100
N358        N  0.47441534  0.86704375  0.41328963    -0.33000
C359        C  0.01666083  0.88684986  0.41605507    -0.10500
C360        C  0.03453744  0.92874417  0.41563005    -0.29300
N361        N  0.45098944  0.49424997  0.40995939    -0.45900
C362        C  0.41484928  0.97963818  0.41031338    -0.05200
C363        C  0.39668250  0.93767512  0.41067158    -0.22600
H364        H  0.40050496  0.86468729  0.41129326     0.19300
H365        H  0.02486220  0.49715985  0.43303503     0.18000
H366        H  0.06628126  0.95090937  0.41394864     0.14300
H367        H  0.36485667  0.91568015  0.40984365     0.14200
H368        H  0.45375448  0.83612397  0.41136883     0.32400
H369        H  0.47168623  0.52477466  0.40308746     0.35100
C370        C  0.43068162  0.89622813  0.25144651     0.20700
C371        C  0.42728665  0.93074780  0.24713015    -0.39200
C372        C  0.46356917  0.96724209  0.24298091     0.19700
C373        C  0.00149662  0.96998564  0.24862343     0.22300
C374        C  0.00457627  0.93514763  0.25315683    -0.39700
C375        C  0.46752104  0.89802205  0.25205383     0.21100
N376        N  0.40047658  0.85801231  0.25509898    -0.33000
C377        C  0.41801901  0.83511523  0.25835277    -0.10500
C378        C  0.45989679  0.85895162  0.25688220    -0.29300
N379        N  0.03278138  0.50799327  0.26216434    -0.45900
C380        C  0.01552375  0.53119590  0.26278138    -0.05200
C381        C  0.47414754  0.50763146  0.25465248    -0.22600
H382        H  0.39846018  0.92927245  0.24694034     0.19300
H383        H  0.03330263  0.93646680  0.25588070     0.18000
H384        H  0.48169218  0.84902758  0.25838786     0.14300
H385        H  0.45245337  0.51766897  0.25595317     0.14200
H386        H  0.36974989  0.84812711  0.25512169     0.32400
H387        H  0.06350347  0.51766350  0.26303829     0.35100
C388        C  0.03744333  0.57574101  0.75604028     0.80600
N389        N  0.01819247  0.59663681  0.76469247    -0.77700
C390        C  0.03912296  0.63746666  0.76783566     0.83000
N391        N  0.07993645  0.65776255  0.76162253    -0.77700
C392        C  0.09941204  0.63678842  0.75234673     0.83100
N393        N  0.07795370  0.59589572  0.75002495    -0.79400
C394        C  0.03683933  0.86467662  0.91443217     0.80600
N395        N  0.07754743  0.88528314  0.91910844    -0.77700
C396        C  0.09839340  0.86543037  0.91909111     0.83000
N397        N  0.07821201  0.82452030  0.91353015    -0.77700
C398        C  0.03735507  0.80374970  0.90881950     0.83100
N399        N  0.01686063  0.82393164  0.90952688    -0.79400
C400        C  0.39447254  0.79239645  0.76073170     0.80600
N401        N  0.35386211  0.77238850  0.75435912    -0.77700
C402        C  0.33242423  0.73145149  0.75509584     0.83000
N403        N  0.35195724  0.71037298  0.76289719    -0.77700
C404        C  0.39273842  0.73048393  0.76958077     0.83100
N405        N  0.41373068  0.77132536  0.76810132    -0.79400
O406        O  0.48652055  0.73464924  0.91932058    -0.57400
C407        C  0.41384202  0.60455727  0.88587146     0.75200
O408        O  0.44569404  0.71558564  0.75909074    -0.58600
C409        C  0.01568372  0.76119761  0.89164161     0.75200
C410        C  0.01742786  0.65783321  0.78647552     0.77500
Cd411      Cd  0.46578240  0.68351420  0.83753757     1.37500
O412        O  0.44451781  0.63020851  0.91550642    -0.57400
O413        O  0.02623756  0.67707603  0.83530050    -0.56300
C414        C  0.41434283  0.70961730  0.78637321     0.77500
O415        O  0.48667124  0.65460770  0.75521130    -0.58600
O416        O  0.40564794  0.61666595  0.83803770    -0.57100
O417        O  0.02556188  0.74995327  0.84500881    -0.57100
O418        O  0.40491198  0.68829420  0.83312335    -0.56200
C419        C  0.10536216  0.50503971  0.58476122     0.80600
N420        N  0.12604892  0.54574054  0.58992167    -0.77700
C421        C  0.16679184  0.56655117  0.58812275     0.83000
N422        N  0.18704902  0.54619567  0.58037788    -0.77700
C423        C  0.16622209  0.50516150  0.57467967     0.83100
N424        N  0.12806299  0.98242653  0.57978256    -0.79400
C425        C  0.32508581  0.86371067  0.58306061     0.80600
N426        N  0.30468190  0.82296919  0.58794120    -0.77700
C427        C  0.26385915  0.80203330  0.58806858     0.83000
N428        N  0.24325923  0.82226801  0.58253910    -0.77700
C429        C  0.26375330  0.86329080  0.57738633     0.83100
N430        N  0.30452646  0.88365844  0.57799784    -0.79400
O431        O  0.17181280  0.63111827  0.59697269    -0.57400
C432        C  0.24344070  0.75915571  0.60495352     0.75200
O433        O  0.16257487  0.63983949  0.74026382    -0.58600
C434        C  0.18768670  0.60945829  0.60512219     0.75200
C435        C  0.29003735  0.71117952  0.73590449     0.77500
Cd436      Cd  0.21593487  0.68442893  0.66966283     1.37500
O437        O  0.25966316  0.73783824  0.59762789    -0.57400
O438        O  0.27563095  0.68081730  0.70189075    -0.56300
C439        C  0.14199301  0.65705823  0.73491102     0.77500
O440        O  0.26757232  0.72567406  0.74673109    -0.58600
O441        O  0.21099079  0.74307395  0.63365122    -0.57100
O442        O  0.22007749  0.62518519  0.63490360    -0.57100
O443        O  0.15845103  0.69034861  0.70767718    -0.56200
C444        C  0.38991632  0.49990659  0.90973948     0.80600
N445        N  0.35322587  0.98318564  0.92303377    -0.77700
C446        C  0.32912830  0.50078703  0.91140556     0.83000
N447        N  0.35010664  0.54170807  0.90540194    -0.77700
C448        C  0.39100324  0.56168198  0.90185645     0.83100
N449        N  0.41067000  0.54066088  0.90445395    -0.79400
O450        O  0.26985156  0.94260825  0.93148519    -0.57400
C451        C  0.14126797  0.88773871  0.93544638     0.75200
O452        O  0.25995603  0.92346458  0.57092910    -0.58600
C453        C  0.28956826  0.98074159  0.93362412     0.75200
C454        C  0.18942989  0.98025957  0.56607779     0.77500
Cd455      Cd  0.21631935  0.93415523  0.99939029     1.37500
O456        O  0.16289751  0.92540585  0.92742384    -0.57400
O457        O  0.22396806  0.99773508  0.04118036    -0.56300
C458        C  0.24332650  0.88581719  0.56193024     0.77500
O459        O  0.17243485  0.94226686  0.57095230    -0.58600
O460        O  0.16047915  0.87166250  0.45726739    -0.57100
O461        O  0.27588132  0.99846256  0.46493935    -0.57100
O462        O  0.21124499  0.87000022  0.03391026    -0.56200
C463        C  0.00266082  0.96837124  0.57679124     0.20700
C464        C  0.46846632  0.97234011  0.58331285    -0.39200
C465        C  0.43198531  0.93568413  0.58339446     0.19700
C466        C  0.43022334  0.89874608  0.58377219     0.22300
C467        C  0.46489504  0.89557335  0.58337110    -0.39700
C468        C  0.00071792  0.93150082  0.58246643     0.21100
N469        N  0.03911591  0.50123446  0.58781802    -0.33000
C470        C  0.06361747  0.98063423  0.58099693    -0.10500
C471        C  0.03951993  0.93885361  0.58482891    -0.29300
N472        N  0.39194821  0.86840681  0.58411119    -0.45900
C473        C  0.36920135  0.88617854  0.58355057    -0.04300
C474        C  0.39307467  0.92811610  0.58311295    -0.22600
H475        H  0.46957252  0.50392553  0.57743021     0.19300
H476        H  0.46358040  0.86673331  0.58345587     0.18000
H477        H  0.04910838  0.91689342  0.58983513     0.14300
H478        H  0.38328003  0.95005929  0.58255991     0.14200
H479        H  0.04945042  0.53215620  0.58749087     0.32400
H480        H  0.38194712  0.83753522  0.58435795     0.35100
C481        C  0.46713182  0.89885606  0.91999221     0.20700
C482        C  0.42910711  0.89534630  0.92149034    -0.39200
C483        C  0.42913970  0.93184593  0.92301738     0.19700
C484        C  0.46432087  0.96892666  0.92264960     0.22300
C485        C  0.00071431  0.97166386  0.90692856    -0.39700
C486        C  0.00076395  0.93529897  0.91014724     0.21100
N487        N  0.47532667  0.86877579  0.91847718    -0.33000
C488        C  0.01463272  0.88646384  0.91370040    -0.10500
C489        C  0.03235919  0.92823531  0.91029156    -0.29300
N490        N  0.45181389  0.49500085  0.91920397    -0.45900
C491        C  0.41563138  0.98104866  0.92290345    -0.05200
C492        C  0.39763910  0.93913448  0.92365323    -0.22600
H493        H  0.40157886  0.86638836  0.92132984     0.19300
H494        H  0.02749243  0.49932967  0.91588630     0.18000
H495        H  0.06406934  0.95040894  0.90791603     0.14300
H496        H  0.36584263  0.91702653  0.92349630     0.14200
H497        H  0.45457283  0.83785544  0.91801240     0.32400
H498        H  0.47251155  0.52570891  0.92465243     0.35100
C499        C  0.43082859  0.89777899  0.74984904     0.20700
C500        C  0.42791330  0.93252837  0.74509278    -0.39200
C501        C  0.46447990  0.96886003  0.74322480     0.19700
C502        C  0.00178797  0.97072413  0.73786477     0.22300
C503        C  0.00504918  0.93592149  0.73811434    -0.39700
C504        C  0.46750931  0.89925458  0.75240919     0.21100
N505        N  0.40030984  0.85965186  0.75273380    -0.33000
C506        C  0.41757194  0.83656072  0.75743160    -0.10500
C507        C  0.45947877  0.86012782  0.75753104    -0.29300
N508        N  0.03215770  0.50869367  0.74818819    -0.45900
C509        C  0.01466461  0.53152324  0.75344388    -0.05200
C510        C  0.47303514  0.50745753  0.75279549    -0.22600
H511        H  0.39924415  0.93137127  0.74337709     0.19300
H512        H  0.03370474  0.93724915  0.73444316     0.18000
H513        H  0.48107091  0.84999123  0.76063020     0.14300
H514        H  0.45116655  0.51728099  0.75119843     0.14200
H515        H  0.36963175  0.84997489  0.75150087     0.32400
H516        H  0.06287142  0.51869395  0.74509787     0.35100
C517        C  0.53387489  0.07440457  0.23271771     0.80600
N518        N  0.51367862  0.09461037  0.23949383    -0.77700
C519        C  0.53359227  0.13551910  0.23951470     0.83000
N520        N  0.57420554  0.15646703  0.23222477    -0.77700
C521        C  0.59450544  0.13626476  0.22486321     0.83100
N522        N  0.57429082  0.09534540  0.22554398    -0.79400
C523        C  0.53247060  0.36021227  0.41434798     0.80600
N524        N  0.57315782  0.38101178  0.41754418    -0.77700
C525        C  0.59429588  0.36155048  0.41598435     0.83000
N526        N  0.57435269  0.32060092  0.41010027    -0.77700
C527        C  0.53335233  0.29951570  0.40616507     0.83100
N528        N  0.51265535  0.31950121  0.40882719    -0.79400
C529        C  0.89696847  0.29189126  0.24021073     0.80600
N530        N  0.85658821  0.27135536  0.23185297    -0.77700
C531        C  0.83625288  0.23052650  0.22776880     0.83000
N532        N  0.85646525  0.20993633  0.23273109    -0.77700
C533        C  0.89710567  0.23056597  0.24147402     0.83100
N534        N  0.91701379  0.27139820  0.24487339    -0.79400
O535        O  0.97450155  0.23632675  0.39694659    -0.57400
C536        C  0.91761513  0.10767110  0.39023345     0.75200
O537        O  0.95704563  0.22755105  0.25490259    -0.58600
C538        C  0.51149431  0.25684806  0.38817771     0.75200
C539        C  0.51204790  0.15577826  0.25924689     0.77500
Cd540      Cd  0.96503150  0.18258186  0.32545738     1.37500
O541        O  0.95562427  0.12769519  0.39395054    -0.57400
O542        O  0.52752957  0.18364589  0.29766611    -0.56300
C543        C  0.91913009  0.20992555  0.25825655     0.77500
O544        O  0.97440045  0.13972282  0.25203066    -0.58600
O545        O  0.90102089  0.12525662  0.36558037    -0.57100
O546        O  0.52801603  0.24229734  0.35642287    -0.57100
O547        O  0.90193406  0.17591554  0.28344102    -0.56200
C548        C  0.60895573  0.00280038  0.09180228     0.80600
N549        N  0.62949229  0.04349573  0.09713371    -0.77700
C550        C  0.67021082  0.06404233  0.10033649     0.83000
N551        N  0.69066127  0.04366164  0.09778862    -0.77700
C552        C  0.67011120  0.00268793  0.09228869     0.83100
N553        N  0.62760038  0.48623981  0.07816328    -0.79400
C554        C  0.82270782  0.36820000  0.09631606     0.80600
N555        N  0.80194409  0.32767803  0.10330289    -0.77700
C556        C  0.76121880  0.30702599  0.10144998     0.83000
N557        N  0.74087338  0.32718046  0.09225366    -0.77700
C558        C  0.76169094  0.36808228  0.08514927     0.83100
N559        N  0.80251270  0.38828813  0.08737064    -0.79400
O560        O  0.69042201  0.13338933  0.08234757    -0.57400
C561        C  0.74068439  0.26434531  0.11802439     0.75200
O562        O  0.66362128  0.15604309  0.24091517    -0.58600
C563        C  0.69044136  0.10675967  0.11649178     0.75200
C564        C  0.79385550  0.21037122  0.20997345     0.77500
Cd565      Cd  0.71551174  0.18519029  0.16257816     1.37500
O566        O  0.73723157  0.23692468  0.08234580    -0.57400
O567        O  0.78309913  0.19508759  0.15824683    -0.56300
C568        C  0.63696984  0.15745564  0.20866289     0.77500
O569        O  0.76733466  0.21117396  0.24250837    -0.58600
O570        O  0.72987267  0.25420071  0.17158382    -0.57100
O571        O  0.70509984  0.11767845  0.16853573    -0.57100
O572        O  0.64781357  0.17488803  0.15856293    -0.56200
C573        C  0.89439259  0.00323438  0.41539115     0.80600
N574        N  0.84827987  0.47862444  0.41348188    -0.77700
C575        C  0.83331830  0.00341720  0.41912311     0.83000
N576        N  0.85385559  0.04438234  0.41240542    -0.77700
C577        C  0.89476240  0.06467626  0.40704685     0.83100
N578        N  0.91465688  0.04385548  0.40890973    -0.79400
O579        O  0.76439530  0.43963753  0.42157837    -0.57400
C580        C  0.63739146  0.38474593  0.43083166     0.75200
O581        O  0.75869077  0.42815202  0.06872813    -0.58600
C582        C  0.78519275  0.47773326  0.42326047     0.75200
C583        C  0.68821309  0.48399501  0.05903504     0.77500
Cd584      Cd  0.71295501  0.43428574  0.49190181     1.37500
O585        O  0.65812517  0.42234038  0.42129301    -0.57400
O586        O  0.72081989  0.49949198  0.52867213    -0.56300
C587        C  0.74151942  0.39008503  0.06523931     0.77500
O588        O  0.67411708  0.44716604  0.07232929    -0.58600
O589        O  0.65541466  0.36964578  0.96119105    -0.57100
O590        O  0.77176277  0.49769226  0.95869949    -0.57100
O591        O  0.70814153  0.37179110  0.53240073    -0.56200
C592        C  0.50238118  0.47228195  0.08272964     0.20700
C593        C  0.96649049  0.47459224  0.08903840    -0.39200
C594        C  0.92982762  0.43839040  0.09245219     0.19700
C595        C  0.92741862  0.40117316  0.09413486     0.22300
C596        C  0.96172489  0.39729453  0.09199525    -0.39700
C597        C  0.50024744  0.43519093  0.08477573     0.21100
N598        N  0.54253400  0.99901815  0.08564935    -0.33000
C599        C  0.56322337  0.48427066  0.08382498    -0.10500
C600        C  0.53903958  0.44238587  0.08526125    -0.29300
N601        N  0.88892879  0.37139645  0.09685275    -0.45900
C602        C  0.86680862  0.38989772  0.09634132    -0.04300
C603        C  0.89125314  0.43166416  0.09376478    -0.22600
H604        H  0.97088531  0.00099885  0.08765150     0.19300
H605        H  0.95991991  0.36822909  0.09305464     0.18000
H606        H  0.54856374  0.42024427  0.08684097     0.14300
H607        H  0.88202538  0.45403345  0.09227308     0.14200
H608        H  0.55278676  0.02991750  0.08648719     0.32400
H609        H  0.87836945  0.34041929  0.09808953     0.35100
C610        C  0.96345576  0.39509624  0.41633515     0.20700
C611        C  0.92528761  0.39123249  0.41324363    -0.39200
C612        C  0.92470763  0.42732422  0.41760840     0.19700
C613        C  0.95952193  0.46437188  0.42424772     0.22300
C614        C  0.49667827  0.46731091  0.40956495    -0.39700
C615        C  0.49666589  0.43097150  0.41381122     0.21100
N616        N  0.97213529  0.36546153  0.41220303    -0.33000
C617        C  0.51030987  0.38199551  0.41604801    -0.10500
C618        C  0.52797906  0.42364900  0.41040056    -0.29300
N619        N  0.95688997  0.99907282  0.41505208    -0.45900
C620        C  0.91065019  0.47616124  0.41808617    -0.05200
C621        C  0.89303697  0.43435488  0.41410040    -0.22600
H622        H  0.89814118  0.36234709  0.40697168     0.19300
H623        H  0.52882125  0.99959322  0.41606341     0.18000
H624        H  0.55944198  0.44555925  0.40390765     0.14300
H625        H  0.86152291  0.41225645  0.40777642     0.14200
H626        H  0.95171762  0.33473520  0.40618025     0.32400
H627        H  0.97767706  0.02993675  0.41283424     0.35100
C628        C  0.93168565  0.39718727  0.25069391     0.20700
C629        C  0.92887034  0.43217385  0.25347629    -0.39200
C630        C  0.96560386  0.46849468  0.25814550     0.19700
C631        C  0.50302863  0.47007235  0.25087299     0.22300
C632        C  0.50597397  0.43523833  0.24821352    -0.39700
C633        C  0.96834430  0.39862917  0.25288176     0.21100
N634        N  0.90136338  0.35892250  0.24557828    -0.33000
C635        C  0.91903182  0.33602210  0.24486779    -0.10500
C636        C  0.96071349  0.35970627  0.24943339    -0.29300
N637        N  0.53041279  0.00775001  0.23802161    -0.45900
C638        C  0.51221976  0.03016935  0.23578471    -0.05200
C639        C  0.97198381  0.00695617  0.24258106    -0.22600
H640        H  0.90029286  0.43121286  0.25171308     0.19300
H641        H  0.53465346  0.43639833  0.24815798     0.18000
H642        H  0.98250894  0.34977617  0.24997838     0.14300
H643        H  0.94996062  0.01655377  0.24000317     0.14200
H644        H  0.87067656  0.34905136  0.24285393     0.32400
H645        H  0.56127290  0.01811991  0.23707426     0.35100
C646        C  0.53528574  0.07589440  0.73954004     0.80600
N647        N  0.51468882  0.09574015  0.74495052    -0.77700
C648        C  0.53417792  0.13658644  0.74511384     0.83000
N649        N  0.57492320  0.15791689  0.73892355    -0.77700
C650        C  0.59574986  0.13803195  0.73337460     0.83100
N651        N  0.57581197  0.09711074  0.73411996    -0.79400
C652        C  0.53441090  0.36155649  0.90819545     0.80600
N653        N  0.57506645  0.38203252  0.91286037    -0.77700
C654        C  0.59583309  0.36212998  0.91502924     0.83000
N655        N  0.57547599  0.32099205  0.91211111    -0.77700
C656        C  0.53450679  0.30021266  0.90714682     0.83100
N657        N  0.51429364  0.32072231  0.90540043    -0.79400
C658        C  0.89758634  0.29182537  0.73943166     0.80600
N659        N  0.85709574  0.27129245  0.73242481    -0.77700
C660        C  0.83659730  0.23045766  0.72889546     0.83000
N661        N  0.85680686  0.20982090  0.73322444    -0.77700
C662        C  0.89757961  0.23039516  0.74079721     0.83100
N663        N  0.91765004  0.27129169  0.74341042    -0.79400
O664        O  0.97449861  0.23526178  0.90439669    -0.57400
C665        C  0.91743375  0.10826865  0.89310619     0.75200
O666        O  0.95726118  0.22662954  0.75429314    -0.58600
C667        C  0.51211254  0.25686301  0.89300902     0.75200
C668        C  0.51161081  0.15621088  0.76311407     0.77500
Cd669      Cd  0.96516591  0.18323057  0.82912048     1.37500
O670        O  0.95549816  0.12734800  0.89475352    -0.57400
O671        O  0.52821113  0.18868597  0.79256404    -0.56300
C672        C  0.91943705  0.20971815  0.75870341     0.77500
O673        O  0.97508833  0.13949770  0.75910022    -0.58600
O674        O  0.90107970  0.12690128  0.87116779    -0.57100
O675        O  0.52850605  0.24034551  0.86558769    -0.57100
O676        O  0.90224783  0.17667226  0.78648306    -0.56200
C677        C  0.60823287  0.00384914  0.58468454     0.80600
N678        N  0.62867973  0.04443249  0.59165041    -0.77700
C679        C  0.66941854  0.06508839  0.59488261     0.83000
N680        N  0.69002982  0.04480842  0.59037564    -0.77700
C681        C  0.66948378  0.00389581  0.58260132     0.83100
N682        N  0.62764513  0.48560218  0.57545041    -0.79400
C683        C  0.82293199  0.36782912  0.58699589     0.80600
N684        N  0.80248238  0.32747927  0.59597876    -0.77700
C685        C  0.76177217  0.30681416  0.59698831     0.83000
N686        N  0.74117980  0.32682629  0.58853949    -0.77700
C687        C  0.76178007  0.36756153  0.57935562     0.83100
N688        N  0.80254805  0.38774525  0.57895542    -0.79400
O689        O  0.68240199  0.13303688  0.58612494    -0.57400
C690        C  0.74175095  0.26457186  0.61617367     0.75200
O691        O  0.66402217  0.15326212  0.74385325    -0.58600
C692        C  0.68942039  0.10777097  0.61251375     0.75200
C693        C  0.79396075  0.21036412  0.71211006     0.77500
Cd694      Cd  0.71548856  0.18574368  0.66483018     1.37500
O695        O  0.73803966  0.23625501  0.58230281    -0.57400
O696        O  0.78259654  0.19439051  0.66094120    -0.56300
C697        C  0.63827085  0.15926982  0.71695366     0.77500
O698        O  0.76788670  0.21204548  0.74463418    -0.58600
O699        O  0.73128214  0.25569126  0.67009055    -0.57100
O700        O  0.71118226  0.11986305  0.65911571    -0.57100
O701        O  0.64978413  0.18098760  0.67062914    -0.56200
C702        C  0.89275767  0.00299847  0.91169768     0.80600
N703        N  0.85117246  0.48204144  0.91796504    -0.77700
C704        C  0.83270853  0.00432239  0.92356778     0.83000
N705        N  0.85363644  0.04540385  0.91787111    -0.77700
C706        C  0.89422667  0.06510634  0.90878288     0.83100
N707        N  0.91339012  0.04364863  0.90620875    -0.79400
O708        O  0.76669181  0.44250501  0.92687149    -0.57400
C709        C  0.63875573  0.38530595  0.93154708     0.75200
O710        O  0.75816281  0.42741397  0.56450957    -0.58600
C711        C  0.78798445  0.48041693  0.93286749     0.75200
C712        C  0.68827357  0.48319148  0.55723499     0.77500
Cd713      Cd  0.71344341  0.43484763  0.99605662     1.37500
O714        O  0.65950563  0.42301164  0.92318144    -0.57400
O715        O  0.71742509  0.49917283  0.02353704    -0.56300
C716        C  0.74133241  0.38939128  0.56011422     0.77500
O717        O  0.67104585  0.44531703  0.56363526    -0.58600
O718        O  0.65431243  0.36921885  0.46014937    -0.57100
O719        O  0.76875352  0.49584539  0.44592278    -0.57100
O720        O  0.70805747  0.37246060  0.03817961    -0.56200
C721        C  0.50243113  0.47146119  0.58221891     0.20700
C722        C  0.96640909  0.47495667  0.58746010    -0.39200
C723        C  0.92975924  0.43859547  0.58669413     0.19700
C724        C  0.92751023  0.40142642  0.58726163     0.22300
C725        C  0.96184841  0.39770236  0.58772805    -0.39700
C726        C  0.50032807  0.43443069  0.58612153     0.21100
N727        N  0.54146729  0.99945667  0.58361183    -0.33000
C728        C  0.56324957  0.48344004  0.58260776    -0.10500
C729        C  0.53911527  0.44160850  0.58607135    -0.29300
N730        N  0.88912584  0.37146226  0.58736885    -0.45900
C731        C  0.86688697  0.38977045  0.58648110    -0.04300
C732        C  0.89110000  0.43161001  0.58574289    -0.22600
H733        H  0.96936979  0.00033867  0.56894768     0.19300
H734        H  0.96013620  0.36867574  0.58782486     0.18000
H735        H  0.54867242  0.41951684  0.58875208     0.14300
H736        H  0.88168714  0.45384841  0.58517982     0.14200
H737        H  0.55152686  0.03031657  0.58440158     0.32400
H738        H  0.87873813  0.34051098  0.58805711     0.35100
C739        C  0.96414534  0.39689878  0.91250005     0.20700
C740        C  0.92628183  0.39373213  0.91147373    -0.39200
C741        C  0.92662243  0.43036187  0.91241685     0.19700
C742        C  0.96195498  0.46730633  0.91372406     0.22300
C743        C  0.49783723  0.46823250  0.92178209    -0.39700
C744        C  0.49813286  0.43207394  0.91598165     0.21100
N745        N  0.97195094  0.36655430  0.91257561    -0.33000
C746        C  0.51228006  0.38348850  0.90859879    -0.10500
C747        C  0.52974683  0.42496413  0.91723300    -0.29300
N748        N  0.95471888  0.99833716  0.90659037    -0.45900
C749        C  0.91347091  0.47973961  0.91379036    -0.05200
C750        C  0.89527636  0.43784571  0.91252565    -0.22600
H751        H  0.89862388  0.36489750  0.91033727     0.19300
H752        H  0.52982925  0.00138213  0.92138655     0.18000
H753        H  0.56126983  0.44689082  0.92399455     0.14300
H754        H  0.86344435  0.41587073  0.91182285     0.14200
H755        H  0.95096926  0.33569770  0.91156273     0.32400
H756        H  0.97555193  0.02915833  0.90363394     0.35100
C757        C  0.93183910  0.39707378  0.74935646     0.20700
C758        C  0.92866573  0.43182027  0.75359141    -0.39200
C759        C  0.96519300  0.46850993  0.75305133     0.19700
C760        C  0.50234192  0.47020803  0.75449577     0.22300
C761        C  0.50555598  0.43545604  0.75449622    -0.39700
C762        C  0.96866062  0.39904500  0.74554066     0.21100
N763        N  0.90169823  0.35857822  0.74779136    -0.33000
C764        C  0.91961087  0.33602790  0.74318837    -0.10500
C765        C  0.96132927  0.36018764  0.74197525    -0.29300
N766        N  0.53152182  0.00906338  0.74342104    -0.45900
C767        C  0.51358413  0.03169369  0.74054155    -0.05200
C768        C  0.97230969  0.00772773  0.74241435    -0.22600
H769        H  0.89995036  0.43039987  0.75691467     0.19300
H770        H  0.53429932  0.43679220  0.75685675     0.18000
H771        H  0.98329362  0.35062715  0.73812444     0.14300
H772        H  0.95040149  0.01737165  0.74618537     0.14200
H773        H  0.87093100  0.34832975  0.74956095     0.32400
H774        H  0.56235395  0.01926942  0.74476671     0.35100
C775        C  0.53877770  0.57545478  0.25957604     0.80600
N776        N  0.51932664  0.59631665  0.26631762    -0.77700
C777        C  0.54017167  0.63712440  0.26960773     0.83000
N778        N  0.58108673  0.65743967  0.26536299    -0.77700
C779        C  0.60076104  0.63651099  0.25782522     0.83100
N780        N  0.57939546  0.59561832  0.25548608    -0.79400
C781        C  0.53763880  0.86387271  0.41295384     0.80600
N782        N  0.57828148  0.88481329  0.41796437    -0.77700
C783        C  0.59973926  0.86564643  0.41600621     0.83000
N784        N  0.58014201  0.82484161  0.40839687    -0.77700
C785        C  0.53923856  0.80364628  0.40348055     0.83100
N786        N  0.51820977  0.82328622  0.40584262    -0.79400
C787        C  0.89514559  0.79144095  0.26236354     0.80600
N788        N  0.85450326  0.77161109  0.25773868    -0.77700
C789        C  0.83271734  0.73075230  0.26053732     0.83000
N790        N  0.85201213  0.70945749  0.26872151    -0.77700
C791        C  0.89296105  0.72936345  0.27323143     0.83100
N792        N  0.91424496  0.77019423  0.26973905    -0.79400
O793        O  0.98345099  0.73647266  0.41595594    -0.57400
C794        C  0.91362886  0.60300892  0.38734525     0.75200
O795        O  0.94683929  0.71565214  0.26347023    -0.58600
C796        C  0.51768387  0.76102053  0.38632637     0.75200
C797        C  0.51823588  0.65736290  0.28728131     0.77500
Cd798      Cd  0.96609760  0.68225763  0.34084648     1.37500
O799        O  0.94275040  0.62893320  0.41932355    -0.57400
O800        O  0.52578177  0.67542106  0.33704179    -0.56300
C801        C  0.91466166  0.70842710  0.28954407     0.77500
O802        O  0.99024604  0.65746311  0.25720285    -0.58600
O803        O  0.90747239  0.61482655  0.33765157    -0.57100
O804        O  0.52252500  0.75073136  0.33481157    -0.57100
O805        O  0.90433002  0.68560057  0.33471099    -0.56200
C806        C  0.60733907  0.50640321  0.08383458     0.80600
N807        N  0.62803156  0.54712257  0.08913533    -0.77700
C808        C  0.66885078  0.56790173  0.08909792     0.83000
N809        N  0.68915801  0.54749501  0.08260997    -0.77700
C810        C  0.66835685  0.50644879  0.07702422     0.83100
N811        N  0.62933500  0.98253589  0.08962115    -0.79400
C812        C  0.82610279  0.86357554  0.08662357     0.80600
N813        N  0.80575823  0.82284041  0.09190927    -0.77700
C814        C  0.76495254  0.80198902  0.09436053     0.83000
N815        N  0.74433624  0.82232187  0.09076260    -0.77700
C816        C  0.76481265  0.86333965  0.08534151     0.83100
N817        N  0.80553527  0.88355950  0.08367203    -0.79400
O818        O  0.67203709  0.63119667  0.10288391    -0.57400
C819        C  0.74467718  0.75894873  0.11063411     0.75200
O820        O  0.66343455  0.63894993  0.24456746    -0.58600
C821        C  0.68956255  0.61081911  0.10638638     0.75200
C822        C  0.78996444  0.71084696  0.24327589     0.77500
Cd823      Cd  0.71684808  0.68409185  0.17485708     1.37500
O824        O  0.76173622  0.73826174  0.10487169    -0.57400
O825        O  0.77162174  0.67581171  0.22108870    -0.56300
C826        C  0.64339223  0.65678836  0.24095836     0.77500
O827        O  0.77118146  0.72999215  0.24314764    -0.58600
O828        O  0.71128028  0.74200682  0.13697065    -0.57100
O829        O  0.72353872  0.62772972  0.13206134    -0.57100
O830        O  0.66035211  0.69069987  0.21548313    -0.56200
C831        C  0.88903972  0.49849882  0.41353000     0.80600
N832        N  0.85381962  0.98320568  0.42027563    -0.77700
C833        C  0.82819504  0.49917660  0.40879251     0.83000
N834        N  0.84931337  0.54011501  0.40313841    -0.77700
C835        C  0.89030062  0.56017877  0.40311614     0.83100
N836        N  0.90989119  0.53924415  0.40864022    -0.79400
O837        O  0.76968282  0.94309044  0.43018486    -0.57400
C838        C  0.64256691  0.88859197  0.43286768     0.75200
O839        O  0.76284726  0.92416311  0.07512139    -0.58600
C840        C  0.79047809  0.98106603  0.43523883     0.75200
C841        C  0.69079212  0.98080253  0.07583762     0.77500
Cd842      Cd  0.71642829  0.93422574  0.50034419     1.37500
O843        O  0.66183219  0.92674650  0.43299091    -0.57400
O844        O  0.72379275  0.99823452  0.54176221    -0.56300
C845        C  0.74438128  0.88608388  0.07127199     0.77500
O846        O  0.67593756  0.94348683  0.08622478    -0.58600
O847        O  0.65939281  0.87084124  0.96720739    -0.57100
O848        O  0.77697459  0.99829842  0.97811101    -0.57100
O849        O  0.70878703  0.86918417  0.53783314    -0.56200
C850        C  0.50414825  0.96891366  0.08334869     0.20700
C851        C  0.96945761  0.97221201  0.08353637    -0.39200
C852        C  0.93290779  0.93561714  0.08177950     0.19700
C853        C  0.93104158  0.89870416  0.07790332     0.22300
C854        C  0.96563133  0.89552486  0.07452379    -0.39700
C855        C  0.50208351  0.93183965  0.08390533     0.21100
N856        N  0.54077909  0.50237193  0.08229638    -0.33000
C857        C  0.56493638  0.98085190  0.08766394    -0.10500
C858        C  0.54080546  0.93900712  0.08625122    -0.29300
N859        N  0.89279224  0.86834614  0.07907005    -0.45900
C860        C  0.87014512  0.88606261  0.08358466    -0.04300
C861        C  0.89405353  0.92800638  0.08514560    -0.22600
H862        H  0.96827055  0.50363854  0.08777571     0.19300
H863        H  0.96422566  0.86669801  0.07162343     0.18000
H864        H  0.55029293  0.91683983  0.08792471     0.14300
H865        H  0.88434011  0.94990112  0.08910406     0.14200
H866        H  0.55104286  0.53326649  0.08097202     0.32400
H867        H  0.88274891  0.83748777  0.07718028     0.35100
C868        C  0.96790209  0.89886825  0.41859325     0.20700
C869        C  0.92990798  0.89541819  0.42008258    -0.39200
C870        C  0.92990954  0.93191541  0.41907325     0.19700
C871        C  0.96503887  0.96896359  0.41658509     0.22300
C872        C  0.50127158  0.97065590  0.41531305    -0.39700
C873        C  0.50120918  0.93419885  0.41593308     0.21100
N874        N  0.97604502  0.86873121  0.41792318    -0.33000
C875        C  0.51511004  0.88535481  0.41464806    -0.10500
C876        C  0.53280486  0.92716949  0.41665791    -0.29300
N877        N  0.95110025  0.49426800  0.42455128    -0.45900
C878        C  0.91627375  0.98105114  0.41679156    -0.05200
C879        C  0.89838854  0.93918638  0.41950114    -0.22600
H880        H  0.90239795  0.86648146  0.42150668     0.19300
H881        H  0.52394146  0.49590504  0.40261398     0.18000
H882        H  0.56454796  0.94945073  0.41756028     0.14300
H883        H  0.86663234  0.91707703  0.42122394     0.14200
H884        H  0.95527936  0.83781894  0.41849354     0.32400
H885        H  0.97169528  0.52514275  0.42803387     0.35100
C886        C  0.93118610  0.89686655  0.25111710     0.20700
C887        C  0.92812793  0.93158908  0.24657112    -0.39200
C888        C  0.96464260  0.96809560  0.24574148     0.19700
C889        C  0.50051375  0.96928953  0.24271651     0.22300
C890        C  0.50395981  0.93465705  0.24746878    -0.39700
C891        C  0.96792733  0.89853074  0.25452433     0.21100
N892        N  0.90079190  0.85862005  0.25331530    -0.33000
C893        C  0.91819230  0.83564261  0.25846231    -0.10500
C894        C  0.96007130  0.85941904  0.25944500    -0.29300
N895        N  0.53344636  0.50830398  0.25366667    -0.45900
C896        C  0.51599672  0.53130395  0.25606109    -0.05200
C897        C  0.97364892  0.50767596  0.26070729    -0.22600
H898        H  0.89939928  0.93028093  0.24419606     0.19300
H899        H  0.53278756  0.93613093  0.24751742     0.18000
H900        H  0.98176267  0.84945189  0.26336871     0.14300
H901        H  0.95208509  0.51790423  0.26000124     0.14200
H902        H  0.87008946  0.84880209  0.25161667     0.32400
H903        H  0.56420083  0.51811287  0.25408764     0.35100
C904        C  0.53730590  0.57568361  0.75771223     0.80600
N905        N  0.51764728  0.59644661  0.76379362    -0.77700
C906        C  0.53833519  0.63733541  0.76596382     0.83000
N907        N  0.57920926  0.65772864  0.76132534    -0.77700
C908        C  0.59907459  0.63694685  0.75458849     0.83100
N909        N  0.57792806  0.59602543  0.75332401    -0.79400
C910        C  0.53808764  0.86502187  0.91785505     0.80600
N911        N  0.57858951  0.88533938  0.92518844    -0.77700
C912        C  0.59945372  0.86551538  0.92525596     0.83000
N913        N  0.57939915  0.82469961  0.91708502    -0.77700
C914        C  0.53859306  0.80411451  0.90972552     0.83100
N915        N  0.51820575  0.82443815  0.91038914    -0.79400
C916        C  0.89647134  0.79218940  0.75224872     0.80600
N917        N  0.85581539  0.77250495  0.74817724    -0.77700
C918        C  0.83394790  0.73169470  0.75105075     0.83000
N919        N  0.85314700  0.71028799  0.75903153    -0.77700
C920        C  0.89410854  0.73000614  0.76322130     0.83100
N921        N  0.91552134  0.77085122  0.75950987    -0.79400
O922        O  0.98435712  0.73502984  0.91852510    -0.57400
C923        C  0.91498854  0.60624261  0.89275109     0.75200
O924        O  0.94599119  0.71299078  0.75576484    -0.58600
C925        C  0.51675820  0.76159834  0.89113890     0.75200
C926        C  0.51669757  0.65779069  0.78432316     0.77500
Cd927      Cd  0.96598125  0.68336928  0.83907781     1.37500
O928        O  0.94716981  0.63187596  0.91928804    -0.57400
O929        O  0.52481184  0.67590499  0.83406810    -0.56300
C930        C  0.91532774  0.70914343  0.78274167     0.77500
O931        O  0.98645016  0.65321796  0.75852967    -0.58600
O932        O  0.90506955  0.61779291  0.84602001    -0.57100
O933        O  0.52506306  0.75119337  0.84221036    -0.57100
O934        O  0.90629369  0.69011114  0.83164006    -0.56200
C935        C  0.60733479  0.50562823  0.58205634     0.80600
N936        N  0.62796027  0.54623928  0.58872309    -0.77700
C937        C  0.66875848  0.56699374  0.58943236     0.83000
N938        N  0.68919376  0.54671243  0.58245539    -0.77700
C939        C  0.66842482  0.50578448  0.57502061     0.83100
N940        N  0.62870721  0.98380862  0.58027416    -0.79400
C941        C  0.82436704  0.86332055  0.58273703     0.80600
N942        N  0.80401911  0.82267114  0.58916561    -0.77700
C943        C  0.76321054  0.80175791  0.59104701     0.83000
N944        N  0.74252618  0.82198191  0.58604001    -0.77700
C945        C  0.76295365  0.86295604  0.57953104     0.83100
N946        N  0.80373134  0.88321870  0.57808830    -0.79400
O947        O  0.67439767  0.63198973  0.59657260    -0.57400
C948        C  0.74303510  0.75880411  0.60800126     0.75200
O949        O  0.66272127  0.64072356  0.74513206    -0.58600
C950        C  0.68922669  0.60968340  0.60765054     0.75200
C951        C  0.79084836  0.71180839  0.73593152     0.77500
Cd952      Cd  0.71560874  0.68409647  0.67284972     1.37500
O953        O  0.76018279  0.73817144  0.60260275    -0.57400
O954        O  0.77253945  0.67728908  0.71218719    -0.56300
C955        C  0.64178244  0.65740611  0.73808027     0.77500
O956        O  0.77143288  0.73026375  0.73980891    -0.58600
O957        O  0.70968347  0.74189531  0.63445234    -0.57100
O958        O  0.71993548  0.62451936  0.64112508    -0.57100
O959        O  0.65800636  0.69021196  0.70968620    -0.56200
C960        C  0.89184446  0.50208437  0.91441896     0.80600
N961        N  0.85249608  0.98349403  0.92011411    -0.77700
C962        C  0.83090180  0.50246756  0.91784981     0.83000
N963        N  0.85167425  0.54346584  0.91331527    -0.77700
C964        C  0.89257373  0.56369765  0.90987310     0.83100
N965        N  0.91240681  0.54286455  0.91067679    -0.79400
O966        O  0.76760606  0.94510842  0.93215149    -0.57400
C967        C  0.64217567  0.88801912  0.94325539     0.75200
O968        O  0.75980231  0.92343717  0.57131104    -0.58600
C969        C  0.79058527  0.98230310  0.94336590     0.75200
C970        C  0.68987491  0.98138219  0.56663591     0.77500
Cd971      Cd  0.71691591  0.93404846  0.00931574     1.37500
O972        O  0.66233821  0.92614762  0.94121570    -0.57400
O973        O  0.72163186  0.99724431  0.04353486    -0.56300
C974        C  0.74237948  0.88553732  0.56456959     0.77500
O975        O  0.67204301  0.94327813  0.57043357    -0.58600
O976        O  0.66064809  0.87159279  0.45440834    -0.57100
O977        O  0.77392604  0.99796988  0.46120727    -0.57100
O978        O  0.70960139  0.86951409  0.04827169    -0.56200
C979        C  0.50315124  0.96915539  0.58312661     0.20700
C980        C  0.96798247  0.97158492  0.57354640    -0.39200
C981        C  0.93140809  0.93507675  0.57700294     0.19700
C982        C  0.92958259  0.89829513  0.58339047     0.22300
C983        C  0.96421003  0.89508491  0.58623991    -0.39700
C984        C  0.50134887  0.93220348  0.58274456     0.21100
N985        N  0.54079454  0.50150525  0.58029351    -0.33000
C986        C  0.56413439  0.98158053  0.58320460    -0.10500
C987        C  0.54020516  0.93968155  0.58241625    -0.29300
N988        N  0.89130085  0.86811394  0.58628157    -0.45900
C989        C  0.86853362  0.88575541  0.58142520    -0.04300
C990        C  0.89245968  0.92750822  0.57549294    -0.22600
H991        H  0.96811522  0.50397832  0.58720513     0.19300
H992        H  0.96283071  0.86637050  0.59144548     0.18000
H993        H  0.54993740  0.91769076  0.58229360     0.14300
H994        H  0.88267816  0.94933716  0.57074406     0.14200
H995        H  0.55103774  0.53235743  0.57752459     0.32400
H996        H  0.88131462  0.83741010  0.59129708     0.35100
C997        C  0.96570475  0.89826537  0.91386917     0.20700
C998        C  0.92769215  0.89479438  0.91547466    -0.39200
C999        C  0.92766506  0.93125200  0.91278049     0.19700
C1000       C  0.96276639  0.96820240  0.90834692     0.22300
C1001       C  0.50230564  0.97242291  0.92152115    -0.39700
C1002       C  0.50228001  0.93596224  0.92035428     0.21100
N1003       N  0.97399678  0.86825131  0.91582374    -0.33000
C1004       C  0.51598537  0.88694955  0.91833902    -0.10500
C1005       C  0.53383768  0.92882306  0.91946654    -0.29300
N1006       N  0.95409781  0.49760334  0.91436224    -0.45900
C1007       C  0.91421066  0.98047813  0.91034199    -0.05200
C1008       C  0.89623710  0.93864814  0.91424842    -0.22600
H1009       H  0.90024366  0.86592300  0.91887869     0.19300
H1010       H  0.52512338  0.49693151  0.92853869     0.18000
H1011       H  0.56560668  0.95102184  0.91976963     0.14300
H1012       H  0.86455012  0.91670326  0.91818207     0.14200
H1013       H  0.95333489  0.83737869  0.91855615     0.32400
H1014       H  0.97506362  0.52846485  0.91536307     0.35100
C1015       C  0.93203062  0.89765161  0.74755427     0.20700
C1016       C  0.92880227  0.93236308  0.74771451    -0.39200
C1017       C  0.96506751  0.96885889  0.74285059     0.19700
C1018       C  0.50128699  0.97060809  0.74532860     0.22300
C1019       C  0.50424687  0.93572157  0.74994254    -0.39700
C1020       C  0.96869859  0.89931753  0.74334895     0.21100
N1021       N  0.90188034  0.85938111  0.75114736    -0.33000
C1022       C  0.91938316  0.83640167  0.74950178    -0.10500
C1023       C  0.96108727  0.86018711  0.74484931    -0.29300
N1024       N  0.53253461  0.50859227  0.75686686    -0.45900
C1025       C  0.51482192  0.53141772  0.75587687    -0.05200
C1026       C  0.97289399  0.50757778  0.75663107    -0.22600
H1027       H  0.90015449  0.93104460  0.75146759     0.19300
H1028       H  0.53292497  0.93690133  0.75198278     0.18000
H1029       H  0.98278645  0.85020204  0.74240799     0.14300
H1030       H  0.95117643  0.51741151  0.76116252     0.14200
H1031       H  0.87126196  0.84953329  0.75458352     0.32400
H1032       H  0.56331585  0.51862221  0.75909356     0.35100
loop_ 
_geom_bond_atom_site_label_1 
_geom_bond_atom_site_label_2 
_geom_bond_distance 
_geom_bond_site_symmetry_2 
_ccdc_geom_bond_type 
C1            N2   1.356       .  A
C1            N6   1.356       .  A
C1          C122   1.469       .  S
N2            C3   1.356       .  A
C3            N4   1.364       .  A
C3           C23   1.471       .  S
N4            C5   1.364       .  A
C5            N6   1.358       .  A
C5           C52   1.467       .  S
C7            N8   1.355       .  A
C7           N12   1.356       .  A
C7          C101   1.468       .  S
N8            C9   1.357       .  A
C9           N10   1.365       .  A
C9           C64   1.468       .  S
N10          C11   1.365       .  A
C11          N12   1.357       .  A
C11          C22   1.474       .  S
C13          N14   1.354       .  A
C13          N18   1.355       .  A
C13         C119   1.467       .  S
N14          C15   1.356       .  A
C15          N16   1.364       .  A
C15          C48   1.463       .  S
N16          C17   1.364       .  A
C17          N18   1.356       .  A
C17          C27   1.469       .  S
O19         Cd24   2.485       .  S
O19         C538   1.268       .  A
C20          C61   1.472       .  S
C20          O29   1.261       .  A
C20          O25   1.266       .  A
O21         Cd24   2.471       .  S
O21          C27   1.266       .  A
C22          O30   1.261       .  A
C22         O535   1.267   1_455  A
C23          O26   1.261       .  A
C23         O544   1.267   1_455  A
Cd24         O31   2.482       .  S
Cd24         O29   2.489       .  S
Cd24         O25   2.478       .  S
Cd24         O28   2.483       .  S
Cd24        O546   2.470       .  S
Cd24        O542   2.453       .  S
O26        Cd540   2.479   1_455  S
C27          O31   1.262       .  A
O28         C539   1.268       .  A
O30        Cd540   2.488   1_455  S
C32          N33   1.354       .  A
C32         N295   1.355   1_545  A
C32         C341   1.467   1_545  S
N33          C34   1.356       .  A
C34          N35   1.366       .  A
C34          C47   1.466       .  S
N35          C36   1.366       .  A
C36         N295   1.357   1_545  A
C36         C325   1.473   1_545  S
N37         C290   1.354       .  A
N37         C294   1.357       .  A
C38          N39   1.355       .  A
C38          N43   1.356       .  A
C38          C86   1.468       .  S
N39          C40   1.356       .  A
C40          N41   1.363       .  A
C40          C45   1.466       .  S
N41          C42   1.365       .  A
C42          N43   1.357       .  A
C42          C71   1.469       .  S
O44         Cd49   2.492       .  S
O44          C47   1.273       .  A
C45          O54   1.264       .  A
C45          O50   1.273       .  A
O46         Cd49   2.490       .  S
O46          C52   1.271       .  A
C47          O55   1.263       .  A
C48          O53   1.272       .  A
C48          O51   1.264       .  A
Cd49         O56   2.448       .  S
Cd49         O55   2.438       .  S
Cd49         O54   2.433       .  S
Cd49         O50   2.498       .  S
Cd49         O53   2.476       .  S
Cd49         O51   2.436       .  S
C52          O56   1.263       .  A
C57          N62   1.355       .  A
C57         N316   1.354   1_545  A
C57         C362   1.468   1_545  S
N58         C315   1.354       .  A
N58         C317   1.356       .  A
C59          N60   1.365       .  A
C59         N316   1.357   1_545  A
C59         C324   1.469   1_545  S
N60          C61   1.365       .  A
C61          N62   1.357       .  A
O63         Cd68   2.471       .  S
O63          C66   1.267       .  A
C64          O69   1.267       .  A
C64         O202   1.261       .  A
O65        Cd197   2.485   1_554  S
O65          C71   1.267       .  A
C66         C317   1.466       .  S
C66         O203   1.261       .  A
C67         C294   1.473       .  S
C67          O72   1.265       .  A
C67         O199   1.262       .  A
Cd68         O75   2.481       .  S
Cd68         O69   2.468       .  S
Cd68         O70   2.486       .  S
Cd68        O194   2.486       .  S
Cd68        O203   2.466       .  S
Cd68        O202   2.475       .  S
Cd68        O201   2.478       .  S
O70         C196   1.261       .  A
C71         O204   1.260       .  A
O72        Cd197   2.466   1_554  S
O73        Cd197   2.469       .  S
O73         C193   1.261       .  A
O74        Cd197   2.482       .  S
O74         C195   1.262       .  A
O75         C200   1.261       .  A
C76         N340   1.340       .  A
C76          C81   1.385   1_455  A
C76         C593   1.399   1_455  A
C77          C78   1.400       .  A
C77         C592   1.401       .  A
C77         H346   1.082       .  S
C78          C87   1.375       .  A
C78          C79   1.385       .  A
C79          N85   1.342       .  A
C79          C80   1.401       .  A
C80         C597   1.400       .  A
C80          H89   1.082       .  S
C81          C84   1.377   1_655  A
C81         C596   1.402       .  A
N82         C334   1.341       .  A
N82         C341   1.355       .  A
N82          H92   1.045   1_565  S
C83         N340   1.353       .  A
C83         C290   1.468       .  S
C83          C84   1.396       .  A
C84          H90   1.082       .  S
N85          C86   1.355       .  A
N85          H93   1.045       .  S
C86          C87   1.394       .  A
C87          H91   1.082       .  S
H88         C335   1.082   1_545  S
C94         N100   1.343       .  A
C94          C95   1.402       .  A
C94         C615   1.385       .  A
C95          C96   1.402       .  A
C95         H106   1.082       .  S
C96         C105   1.376       .  A
C96          C97   1.385       .  A
C97         N361   1.339       .  A
C97         C614   1.398       .  A
C98          C99   1.400       .  A
C98         C613   1.401       .  A
C98         H365   1.082   1_655  S
C99         C102   1.376   1_655  A
C99         C610   1.384       .  A
N100        C617   1.355       .  A
N100        H110   1.045       .  S
C101        N616   1.355   1_455  A
C101        C102   1.395       .  A
C102        H108   1.083       .  S
N103        C355   1.340       .  A
N103        C362   1.354       .  A
N103        H111   1.045   1_565  S
C104        N361   1.353       .  A
C104        C315   1.465       .  S
C104        C105   1.395       .  A
C105        H109   1.082       .  S
H107        C356   1.082   1_545  S
C112        N118   1.343       .  A
C112        C117   1.385       .  A
C112        C113   1.402       .  A
C113        C114   1.401       .  A
C113        H124   1.082       .  S
C114        C381   1.375       .  A
C114        C631   1.385       .  A
C115        N379   1.341       .  A
C115        C116   1.399       .  A
C115        C630   1.385   1_455  A
C116        C633   1.398   1_455  A
C116        H125   1.082       .  S
C117        C120   1.373       .  A
C117        C632   1.398       .  A
N118        C119   1.356       .  A
N118        H128   1.044       .  S
C119        C120   1.393       .  A
C120        H126   1.082       .  S
N121        C122   1.356       .  A
N121        C373   1.344   1_545  A
N121        H129   1.046       .  S
C122        C639   1.393   1_455  A
C123        C372   1.373   1_545  A
C123        C638   1.393       .  A
C123        H127   1.082       .  S
C130        N131   1.354       .  A
C130        N135   1.354       .  A
C130        C251   1.468       .  S
N131        C132   1.356       .  A
C132        N133   1.365       .  A
C132        C152   1.471       .  S
N133        C134   1.365       .  A
C134        N135   1.357       .  A
C134        C181   1.466       .  S
C136        N137   1.354       .  A
C136        N141   1.356       .  A
C136        C230   1.467       .  S
N137        C138   1.355       .  A
C138        N139   1.364       .  A
C138        C193   1.469       .  S
N139        C140   1.365       .  A
C140        N141   1.358       .  A
C140        C151   1.471       .  S
C142        N143   1.355       .  A
C142        N147   1.354       .  A
C142        C248   1.467       .  S
N143        C144   1.357       .  A
C144        N145   1.363       .  A
C144        C177   1.463       .  S
N145        C146   1.363       .  A
C146        N147   1.356       .  A
C146        C156   1.466       .  S
O148       Cd153   2.480       .  S
O148        C667   1.267       .  A
C149        C190   1.472       .  S
C149        O158   1.261       .  A
C149        O154   1.267       .  A
O150       Cd153   2.467       .  S
O150        C156   1.265       .  A
C151        O664   1.267   1_455  A
C151        O159   1.260       .  A
C152        O673   1.267   1_455  A
C152        O155   1.262       .  A
Cd153       O160   2.472       .  S
Cd153       O675   2.474       .  S
Cd153       O158   2.490       .  S
Cd153       O154   2.472       .  S
Cd153       O157   2.469       .  S
Cd153       O671   2.469       .  S
O155       Cd669   2.495   1_455  S
C156        O160   1.261       .  A
O157        C668   1.267       .  A
O159       Cd669   2.470   1_455  S
C161        N162   1.355       .  A
C161        N424   1.356   1_545  A
C161        C470   1.468   1_545  S
N162        C163   1.357       .  A
C163        N164   1.364       .  A
C163        C176   1.466       .  S
N164        C165   1.365       .  A
C165        N424   1.357   1_545  A
C165        C454   1.473   1_545  S
N166        C419   1.354       .  A
N166        C423   1.356       .  A
C167        N168   1.354       .  A
C167        N172   1.356       .  A
C167        C215   1.467       .  S
N168        C169   1.356       .  A
C169        N170   1.363       .  A
C169        C174   1.464       .  S
N170        C171   1.365       .  A
C171        N172   1.358       .  A
C171        C200   1.471       .  S
O173       Cd178   2.488       .  S
O173        C176   1.272       .  A
C174        O183   1.265       .  A
C174        O179   1.272       .  A
O175       Cd178   2.478       .  S
O175        C181   1.272       .  A
C176        O184   1.264       .  A
C177        O182   1.273       .  A
C177        O180   1.264       .  A
Cd178       O185   2.444       .  S
Cd178       O184   2.436       .  S
Cd178       O183   2.440       .  S
Cd178       O179   2.476       .  S
Cd178       O182   2.481       .  S
Cd178       O180   2.433       .  S
C181        O185   1.265       .  A
C186        N445   1.353   1_545  A
C186        N191   1.354       .  A
C186        C491   1.467   1_545  S
N187        C444   1.356       .  A
N187        C446   1.358       .  A
C188        N445   1.356   1_545  A
C188        N189   1.366       .  A
C188        C453   1.471   1_545  S
N189        C190   1.367       .  A
C190        N191   1.357       .  A
O192       Cd197   2.473       .  S
O192        C195   1.266       .  A
C193        O198   1.268       .  A
O194        C200   1.267       .  A
C195        C446   1.471       .  S
C196        C423   1.472       .  S
C196        O201   1.267       .  A
Cd197       O204   2.464   1_556  S
Cd197       O198   2.478       .  S
Cd197       O199   2.502   1_556  S
C205        N469   1.339       .  A
C205        C210   1.385   1_455  A
C205        C722   1.399   1_455  A
C206        C721   1.400       .  A
C206        C207   1.399       .  A
C206        H475   1.082       .  S
C207        C216   1.374       .  A
C207        C208   1.385       .  A
C208        N214   1.341       .  A
C208        C209   1.401       .  A
C209        C726   1.400       .  A
C209        H218   1.082       .  S
C210        C725   1.398       .  A
C210        C213   1.373   1_655  A
N211        C463   1.343       .  A
N211        C470   1.356       .  A
N211        H221   1.044   1_565  S
C212        N469   1.354       .  A
C212        C419   1.463       .  S
C212        C213   1.393       .  A
C213        H219   1.082       .  S
N214        C215   1.355       .  A
N214        H222   1.045       .  S
C215        C216   1.394       .  A
C216        H220   1.082       .  S
H217        C464   1.082   1_545  S
C223        N229   1.343       .  A
C223        C744   1.384       .  A
C223        C224   1.403       .  A
C224        C225   1.402       .  A
C224        H235   1.082       .  S
C225        C234   1.377       .  A
C225        C226   1.385       .  A
C226        N490   1.342       .  A
C226        C743   1.401       .  A
C227        C742   1.401       .  A
C227        C228   1.400       .  A
C227        H494   1.082   1_655  S
C228        C739   1.385       .  A
C228        C231   1.374   1_655  A
N229        C746   1.355       .  A
N229        H239   1.045       .  S
C230        N745   1.354   1_455  A
C230        C231   1.395       .  A
C231        H237   1.082       .  S
N232        C484   1.341       .  A
N232        C491   1.354       .  A
N232        H240   1.045   1_565  S
C233        N490   1.355       .  A
C233        C444   1.470       .  S
C233        C234   1.396       .  A
C234        H238   1.082       .  S
H236        C485   1.082   1_545  S
C241        N247   1.342       .  A
C241        C246   1.385       .  A
C241        C242   1.402       .  A
C242        C243   1.401       .  A
C242        H253   1.082       .  S
C243        C510   1.376       .  A
C243        C760   1.385       .  A
C244        N508   1.340       .  A
C244        C759   1.385   1_455  A
C244        C245   1.399       .  A
C245        C762   1.398   1_455  A
C245        H254   1.082       .  S
C246        C761   1.399       .  A
C246        C249   1.374       .  A
N247        C248   1.355       .  A
N247        H257   1.044       .  S
C248        C249   1.394       .  A
C249        H255   1.082       .  S
N250        C502   1.343   1_545  A
N250        C251   1.356       .  A
N250        H258   1.046       .  S
C251        C768   1.393   1_455  A
C252        C501   1.371   1_545  A
C252        C767   1.392       .  A
C252        H256   1.082       .  S
C259        N260   1.353       .  A
C259        N264   1.356       .  A
C259        C380   1.467       .  S
N260        C261   1.354       .  A
C261        N262   1.365       .  A
C261        C281   1.464       .  S
N262        C263   1.366       .  A
C263        N264   1.358       .  A
C263        C310   1.474       .  S
C265        N266   1.354       .  A
C265        N270   1.356       .  A
C265        C359   1.468       .  S
N266        C267   1.355       .  A
C267        N268   1.364       .  A
C267        C322   1.468       .  S
N268        C269   1.364       .  A
C269        N270   1.358       .  A
C269        C280   1.469       .  S
C271        N272   1.355       .  A
C271        N276   1.353       .  A
C271        C377   1.468       .  S
N272        C273   1.357       .  A
C273        N274   1.365       .  A
C273        C306   1.475       .  S
N274        C275   1.366       .  A
C275        N276   1.356       .  A
C275        C285   1.463       .  S
O277       Cd282   2.484       .  S
O277        C796   1.273       .  A
C278        C319   1.465       .  S
C278        O287   1.263       .  A
C278        O283   1.272       .  A
O279       Cd282   2.467       .  S
O279        C285   1.273       .  A
C280        O793   1.271   1_455  A
C280        O288   1.262       .  A
C281        O802   1.274   1_455  A
C281        O284   1.263       .  A
Cd282       O289   2.437       .  S
Cd282       O804   2.428       .  S
Cd282       O287   2.442       .  S
Cd282       O283   2.479       .  S
Cd282       O286   2.479       .  S
Cd282       O800   2.438       .  S
O284       Cd798   2.427   1_455  S
C285        O289   1.264       .  A
O286        C797   1.272       .  A
O288       Cd798   2.457   1_455  S
C290        N291   1.355       .  A
N291        C292   1.358       .  A
C292        N293   1.367       .  A
C292        C305   1.477       .  S
N293        C294   1.367       .  A
C296        N297   1.357       .  A
C296        N301   1.355       .  A
C296        C344   1.468       .  S
N297        C298   1.358       .  A
C298        N299   1.366       .  A
C298        C303   1.474       .  S
N299        C300   1.366       .  A
C300        N301   1.356       .  A
C300        C329   1.473       .  S
O302       Cd307   2.483       .  S
O302        C305   1.266       .  A
C303        O312   1.261       .  A
C303        O308   1.268       .  A
O304       Cd307   2.492       .  S
O304        C310   1.267       .  A
C305        O313   1.262       .  A
C306        O311   1.264       .  A
C306        O309   1.263       .  A
Cd307       O314   2.488       .  S
Cd307       O313   2.508       .  S
Cd307       O312   2.481       .  S
Cd307       O308   2.493       .  S
Cd307       O311   2.467       .  S
Cd307       O309   2.519       .  S
C310        O314   1.261       .  A
C315        N320   1.355       .  A
C317        N318   1.364       .  A
N318        C319   1.363       .  A
C319        N320   1.355       .  A
O321       Cd326   2.473       .  S
O321        C324   1.266       .  A
C322        O460   1.261       .  A
C322        O327   1.266       .  A
O323       Cd455   2.478   1_554  S
O323        C329   1.267       .  A
C324        O461   1.261       .  A
C325        O330   1.266       .  A
C325        O457   1.261       .  A
Cd326       O452   2.471       .  S
Cd326       O333   2.486       .  S
Cd326       O461   2.484       .  S
Cd326       O460   2.475       .  S
Cd326       O327   2.468       .  S
Cd326       O459   2.483       .  S
Cd326       O328   2.486       .  S
O328        C454   1.262       .  A
C329        O462   1.262       .  A
O330       Cd455   2.476   1_554  S
O331       Cd455   2.469       .  S
O331        C451   1.261       .  A
O332       Cd455   2.498       .  S
O332        C453   1.262       .  A
O333        C458   1.261       .  A
C334        C339   1.385       .  A
C334        C851   1.401   1_455  A
C335        C850   1.401       .  A
C335        C336   1.401       .  A
C336        C345   1.375       .  A
C336        C337   1.385       .  A
C337        N343   1.341       .  A
C337        C338   1.400       .  A
C338        C855   1.399       .  A
C338        H347   1.082       .  S
C339        C854   1.399   1_455  A
C339        C342   1.374       .  A
N340        H350   1.045       .  S
C341        C342   1.393       .  A
C342        H348   1.082       .  S
N343        C344   1.354       .  A
N343        H351   1.045       .  S
C344        C345   1.395       .  A
C345        H349   1.082       .  S
C352        N358   1.343       .  A
C352        C873   1.384       .  A
C352        C353   1.403       .  A
C353        C354   1.402       .  A
C353        H364   1.082       .  S
C354        C363   1.377       .  A
C354        C355   1.385       .  A
C355        C872   1.399       .  A
C356        C871   1.401   1_455  A
C356        C357   1.400       .  A
C357        C868   1.385   1_455  A
C357        C360   1.374       .  A
N358        C875   1.356       .  A
N358        H368   1.045       .  S
C359        N874   1.355   1_455  A
C359        C360   1.394       .  A
C360        H366   1.082       .  S
N361        H369   1.045       .  S
C362        C363   1.396       .  A
C363        H367   1.082       .  S
C370        N376   1.339       .  A
C370        C375   1.385       .  A
C370        C371   1.398       .  A
C371        C372   1.397       .  A
C371        H382   1.082       .  S
C372        C889   1.384       .  A
C373        C888   1.385   1_455  A
C373        C374   1.404       .  A
C374        C891   1.403   1_455  A
C374        H383   1.082       .  S
C375        C890   1.403       .  A
C375        C378   1.379       .  A
N376        C377   1.353       .  A
N376        H386   1.044       .  S
C377        C378   1.397       .  A
C378        H384   1.082       .  S
N379        C380   1.353       .  A
N379        H387   1.046       .  S
C380        C897   1.396   1_455  A
C381        C896   1.395       .  A
C381        H385   1.082       .  S
C388        N389   1.354       .  A
C388        N393   1.355       .  A
C388        C509   1.467       .  S
N389        C390   1.355       .  A
C390        N391   1.366       .  A
C390        C410   1.466       .  S
N391        C392   1.366       .  A
C392        N393   1.357       .  A
C392        C439   1.473       .  S
C394        N395   1.357       .  A
C394        N399   1.355       .  A
C394        C488   1.466       .  S
N395        C396   1.357       .  A
C396        N397   1.362       .  A
C396        C451   1.469       .  S
N397        C398   1.362       .  A
C398        N399   1.356       .  A
C398        C409   1.461       .  S
C400        N401   1.357       .  A
C400        N405   1.353       .  A
C400        C506   1.467       .  S
N401        C402   1.358       .  A
C402        N403   1.364       .  A
C402        C435   1.470       .  S
N403        C404   1.363       .  A
C404        N405   1.355       .  A
C404        C414   1.462       .  S
O406       Cd411   2.498       .  S
O406        C925   1.272       .  A
C407        C448   1.467       .  S
C407        O416   1.263       .  A
C407        O412   1.272       .  A
O408       Cd411   2.470       .  S
O408        C414   1.271       .  A
C409        O922   1.270   1_455  A
C409        O417   1.262       .  A
C410        O931   1.271   1_455  A
C410        O413   1.263       .  A
Cd411       O418   2.442       .  S
Cd411       O933   2.447       .  S
Cd411       O416   2.441       .  S
Cd411       O412   2.491       .  S
Cd411       O415   2.490       .  S
Cd411       O929   2.435       .  S
O413       Cd927   2.453   1_455  S
C414        O418   1.263       .  A
O415        C926   1.272       .  A
O417       Cd927   2.429   1_455  S
C419        N420   1.354       .  A
N420        C421   1.356       .  A
C421        N422   1.366       .  A
C421        C434   1.472       .  S
N422        C423   1.366       .  A
C425        N426   1.355       .  A
C425        N430   1.354       .  A
C425        C473   1.467       .  S
N426        C427   1.358       .  A
C427        N428   1.366       .  A
C427        C432   1.472       .  S
N428        C429   1.365       .  A
C429        N430   1.356       .  A
C429        C458   1.471       .  S
O431       Cd436   2.484       .  S
O431        C434   1.267       .  A
C432        O441   1.261       .  A
C432        O437   1.267       .  A
O433       Cd436   2.478       .  S
O433        C439   1.267       .  A
C434        O442   1.261       .  A
C435        O440   1.267       .  A
C435        O438   1.260       .  A
Cd436       O443   2.493       .  S
Cd436       O442   2.485       .  S
Cd436       O441   2.483       .  S
Cd436       O437   2.486       .  S
Cd436       O440   2.490       .  S
Cd436       O438   2.471       .  S
C439        O443   1.261       .  A
C444        N449   1.357       .  A
C446        N447   1.364       .  A
N447        C448   1.363       .  A
C448        N449   1.357       .  A
O450       Cd455   2.457       .  S
O450        C453   1.265       .  A
C451        O456   1.266       .  A
O452        C458   1.267       .  A
C454        O459   1.267       .  A
Cd455       O462   2.490   1_556  S
Cd455       O456   2.483       .  S
Cd455       O457   2.490   1_556  S
C463        C468   1.384       .  A
C463        C980   1.402   1_455  A
C464        C979   1.401       .  A
C464        C465   1.400       .  A
C465        C474   1.375       .  A
C465        C466   1.385       .  A
C466        N472   1.341       .  A
C466        C467   1.400       .  A
C467        C984   1.399       .  A
C467        H476   1.082       .  S
C468        C983   1.399   1_455  A
C468        C471   1.374       .  A
N469        H479   1.045       .  S
C470        C471   1.393       .  A
C471        H477   1.082       .  S
N472        C473   1.354       .  A
N472        H480   1.045       .  S
C473        C474   1.395       .  A
C474        H478   1.082       .  S
C481        N487   1.342       .  A
C481       C1002   1.385       .  A
C481        C482   1.402       .  A
C482        C483   1.401       .  A
C482        H493   1.082       .  S
C483        C492   1.375       .  A
C483        C484   1.385       .  A
C484       C1001   1.400       .  A
C485       C1000   1.399   1_455  A
C485        C486   1.398       .  A
C486        C997   1.385   1_455  A
C486        C489   1.373       .  A
N487       C1004   1.355       .  A
N487        H497   1.045       .  S
C488       N1003   1.356   1_455  A
C488        C489   1.393       .  A
C489        H495   1.082       .  S
N490        H498   1.045       .  S
C491        C492   1.395       .  A
C492        H496   1.082       .  S
C499        N505   1.340       .  A
C499        C504   1.385       .  A
C499        C500   1.397       .  A
C500        C501   1.397       .  A
C500        H511   1.082       .  S
C501       C1018   1.385       .  A
C502       C1017   1.385   1_455  A
C502        C503   1.403       .  A
C503       C1020   1.402   1_455  A
C503        H512   1.082       .  S
C504       C1019   1.403       .  A
C504        C507   1.377       .  A
N505        C506   1.353       .  A
N505        H515   1.044       .  S
C506        C507   1.397       .  A
C507        H513   1.082       .  S
N508        C509   1.354       .  A
N508        H516   1.046       .  S
C509       C1026   1.396   1_455  A
C510       C1025   1.395       .  A
C510        H514   1.082       .  S
C517        N518   1.356       .  A
C517        N522   1.355       .  A
C517        C638   1.468       .  S
N518        C519   1.356       .  A
C519        N520   1.362       .  A
C519        C539   1.465       .  S
N520        C521   1.361       .  A
C521        N522   1.357       .  A
C521        C568   1.461       .  S
C523        N524   1.354       .  A
C523        N528   1.355       .  A
C523        C617   1.466       .  S
N524        C525   1.354       .  A
C525        N526   1.364       .  A
C525        C580   1.469       .  S
N526        C527   1.365       .  A
C527        N528   1.358       .  A
C527        C538   1.470       .  S
C529        N530   1.354       .  A
C529        N534   1.354       .  A
C529        C635   1.467       .  S
N530        C531   1.357       .  A
C531        N532   1.364       .  A
C531        C564   1.462       .  S
N532        C533   1.364       .  A
C533        N534   1.356       .  A
C533        C543   1.468       .  S
O535       Cd540   2.488       .  S
C536        C577   1.476       .  S
C536        O545   1.262       .  A
C536        O541   1.266       .  A
O537       Cd540   2.463       .  S
O537        C543   1.265       .  A
C538        O546   1.261       .  A
C539        O542   1.260       .  A
Cd540       O547   2.485       .  S
Cd540       O545   2.507       .  S
Cd540       O541   2.476       .  S
Cd540       O544   2.480       .  S
C543        O547   1.261       .  A
C548        N549   1.354       .  A
C548        N811   1.356   1_545  A
C548        C857   1.466   1_545  S
N549        C550   1.355       .  A
C550        N551   1.363       .  A
C550        C563   1.462       .  S
N551        C552   1.364       .  A
C552        N811   1.357   1_545  A
C552        C841   1.468   1_545  S
N553        C806   1.354       .  A
N553        C810   1.356       .  A
C554        N555   1.353       .  A
C554        N559   1.356       .  A
C554        C602   1.467       .  S
N555        C556   1.354       .  A
C556        N557   1.364       .  A
C556        C561   1.464       .  S
N557        C558   1.366       .  A
C558        N559   1.358       .  A
C558        C587   1.472       .  S
O560       Cd565   2.480       .  S
O560        C563   1.274       .  A
C561        O570   1.265       .  A
C561        O566   1.274       .  A
O562       Cd565   2.472       .  S
O562        C568   1.271       .  A
C563        O571   1.264       .  A
C564        O569   1.272       .  A
C564        O567   1.265       .  A
Cd565       O572   2.432       .  S
Cd565       O571   2.418       .  S
Cd565       O570   2.426       .  S
Cd565       O566   2.488       .  S
Cd565       O569   2.469       .  S
Cd565       O567   2.436       .  S
C568        O572   1.264       .  A
C573        N832   1.355   1_545  A
C573        N578   1.355       .  A
C573        C878   1.469   1_545  S
N574        C831   1.356       .  A
N574        C833   1.358       .  A
C575        N832   1.357   1_545  A
C575        N576   1.367       .  A
C575        C840   1.473   1_545  S
N576        C577   1.367       .  A
C577        N578   1.358       .  A
O579       Cd584   2.466       .  S
O579        C582   1.265       .  A
C580        O718   1.260       .  A
C580        O585   1.267       .  A
O581       Cd713   2.475   1_554  S
O581        C587   1.267       .  A
C582        C833   1.469       .  S
C582        O719   1.262       .  A
C583        C810   1.470       .  S
C583        O588   1.268       .  A
C583        O715   1.260       .  A
Cd584       O710   2.476       .  S
Cd584       O591   2.480       .  S
Cd584       O719   2.483       .  S
Cd584       O718   2.477       .  S
Cd584       O585   2.473       .  S
Cd584       O717   2.469       .  S
Cd584       O586   2.505       .  S
O586        C712   1.262       .  A
C587        O720   1.261       .  A
O588       Cd713   2.489   1_554  S
O589       Cd713   2.491       .  S
O589        C709   1.260       .  A
O590       Cd713   2.474       .  S
O590        C711   1.261       .  A
O591        C716   1.261       .  A
C592        N856   1.341       .  A
C592        C597   1.385       .  A
C593        C594   1.398       .  A
C593        H862   1.082       .  S
C594        C603   1.374       .  A
C594        C595   1.384       .  A
C595        N601   1.342       .  A
C595        C596   1.403       .  A
C596        H605   1.082       .  S
C597        C600   1.375       .  A
N598        C850   1.341       .  A
N598        C857   1.355       .  A
N598        H608   1.044   1_565  S
C599        N856   1.354       .  A
C599        C806   1.467       .  S
C599        C600   1.394       .  A
C600        H606   1.082       .  S
N601        C602   1.356       .  A
N601        H609   1.045       .  S
C602        C603   1.392       .  A
C603        H607   1.082       .  S
H604        C851   1.082   1_545  S
C610        N616   1.341       .  A
C610        C611   1.402       .  A
C611        C612   1.400       .  A
C611        H622   1.082       .  S
C612        C621   1.377       .  A
C612        C613   1.385       .  A
C613        N877   1.340       .  A
C614        C615   1.397       .  A
C614        H881   1.082       .  S
C615        C618   1.372       .  A
N616        H626   1.045       .  S
C617        C618   1.393       .  A
C618        H624   1.082       .  S
N619        C871   1.342       .  A
N619        C878   1.355       .  A
N619        H627   1.045   1_565  S
C620        N877   1.354       .  A
C620        C831   1.468       .  S
C620        C621   1.395       .  A
C621        H625   1.082       .  S
H623        C872   1.082       .  S
C628        N634   1.343       .  A
C628        C633   1.385       .  A
C628        C629   1.402       .  A
C629        C630   1.402       .  A
C629        H640   1.082       .  S
C630        C897   1.375       .  A
C631        N895   1.340       .  A
C631        C632   1.399       .  A
C632        H641   1.082       .  S
C633        C636   1.372       .  A
N634        C635   1.356       .  A
N634        H644   1.044       .  S
C635        C636   1.392       .  A
C636        H642   1.082       .  S
N637        C889   1.343   1_545  A
N637        C638   1.356       .  A
N637        H645   1.046       .  S
C639        C888   1.373   1_545  A
C639        H643   1.082       .  S
C646        N647   1.355       .  A
C646        N651   1.355       .  A
C646        C767   1.466       .  S
N647        C648   1.355       .  A
C648        N649   1.364       .  A
C648        C668   1.467       .  S
N649        C650   1.364       .  A
C650        N651   1.357       .  A
C650        C697   1.464       .  S
C652        N653   1.355       .  A
C652        N657   1.355       .  A
C652        C746   1.469       .  S
N653        C654   1.356       .  A
C654        N655   1.365       .  A
C654        C709   1.472       .  S
N655        C656   1.366       .  A
C656        N657   1.358       .  A
C656        C667   1.471       .  S
C658        N659   1.354       .  A
C658        N663   1.355       .  A
C658        C764   1.468       .  S
N659        C660   1.356       .  A
C660        N661   1.364       .  A
C660        C693   1.464       .  S
N661        C662   1.365       .  A
C662        N663   1.357       .  A
C662        C672   1.470       .  S
O664       Cd669   2.496       .  S
C665        C706   1.475       .  S
C665        O674   1.262       .  A
C665        O670   1.266       .  A
O666       Cd669   2.479       .  S
O666        C672   1.265       .  A
C667        O675   1.260       .  A
C668        O671   1.260       .  A
Cd669       O676   2.486       .  S
Cd669       O674   2.510       .  S
Cd669       O670   2.465       .  S
Cd669       O673   2.467       .  S
C672        O676   1.261       .  A
C677        N678   1.354       .  A
C677        N940   1.355   1_545  A
C677        C986   1.466   1_545  S
N678        C679   1.356       .  A
C679        N680   1.368       .  A
C679        C692   1.469       .  S
N680        C681   1.367       .  A
C681        N940   1.357   1_545  A
C681        C970   1.477   1_545  S
N682        C935   1.354       .  A
N682        C939   1.356       .  A
C683        N684   1.353       .  A
C683        N688   1.354       .  A
C683        C731   1.462       .  S
N684        C685   1.354       .  A
C685        N686   1.365       .  A
C685        C690   1.466       .  S
N686        C687   1.366       .  A
C687        N688   1.356       .  A
C687        C716   1.470       .  S
O689       Cd694   2.487       .  S
O689        C692   1.272       .  A
C690        O699   1.264       .  A
C690        O695   1.273       .  A
O691       Cd694   2.482       .  S
O691        C697   1.271       .  A
C692        O700   1.263       .  A
C693        O698   1.273       .  A
C693        O696   1.264       .  A
Cd694       O701   2.447       .  S
Cd694       O700   2.453       .  S
Cd694       O699   2.439       .  S
Cd694       O695   2.495       .  S
Cd694       O698   2.480       .  S
Cd694       O696   2.436       .  S
C697        O701   1.262       .  A
C702        N961   1.354   1_545  A
C702        N707   1.354       .  A
C702       C1007   1.466   1_545  S
N703        C960   1.356       .  A
N703        C962   1.357       .  A
C704        N961   1.357   1_545  A
C704        N705   1.368       .  A
C704        C969   1.473   1_545  S
N705        C706   1.367       .  A
C706        N707   1.356       .  A
O708       Cd713   2.476       .  S
O708        C711   1.267       .  A
C709        O714   1.266       .  A
O710        C716   1.267       .  A
C711        C962   1.469       .  S
C712        C939   1.473       .  S
C712        O717   1.266       .  A
Cd713       O720   2.480   1_556  S
Cd713       O714   2.481       .  S
Cd713       O715   2.474   1_556  S
C721        N985   1.341       .  A
C721        C726   1.385       .  A
C722        C723   1.398       .  A
C722        H991   1.082       .  S
C723        C732   1.373       .  A
C723        C724   1.385       .  A
C724        N730   1.339       .  A
C724        C725   1.399       .  A
C725        H734   1.082       .  S
C726        C729   1.375       .  A
N727        C979   1.341       .  A
N727        C986   1.355       .  A
N727        H737   1.044   1_565  S
C728        N985   1.354       .  A
C728        C935   1.466       .  S
C728        C729   1.394       .  A
C729        H735   1.082       .  S
N730        C731   1.354       .  A
N730        H738   1.045       .  S
C731        C732   1.393       .  A
C732        H736   1.082       .  S
H733        C980   1.082   1_545  S
C739        N745   1.341       .  A
C739        C740   1.400       .  A
C740        C741   1.400       .  A
C740        H751   1.082       .  S
C741        C750   1.374       .  A
C741        C742   1.385       .  A
C742       N1006   1.341       .  A
C743        C744   1.400       .  A
C743       H1010   1.082       .  S
C744        C747   1.375       .  A
N745        H755   1.045       .  S
C746        C747   1.394       .  A
C747        H753   1.082       .  S
N748       C1000   1.340       .  A
N748       C1007   1.354       .  A
N748        H756   1.045   1_565  S
C749       N1006   1.355       .  A
C749        C960   1.466       .  S
C749        C750   1.393       .  A
C750        H754   1.082       .  S
H752       C1001   1.082   1_545  S
C757        N763   1.343       .  A
C757        C762   1.384       .  A
C757        C758   1.403       .  A
C758        C759   1.402       .  A
C758        H769   1.082       .  S
C759       C1026   1.377       .  A
C760       N1024   1.341       .  A
C760        C761   1.400       .  A
C761        H770   1.082       .  S
C762        C765   1.373       .  A
N763        C764   1.356       .  A
N763        H773   1.044       .  S
C764        C765   1.393       .  A
C765        H771   1.082       .  S
N766       C1018   1.343   1_545  A
N766        C767   1.356       .  A
N766        H774   1.046       .  S
C768       C1017   1.373   1_545  A
C768        H772   1.082       .  S
C775        N776   1.353       .  A
C775        N780   1.355       .  A
C775        C896   1.466       .  S
N776        C777   1.355       .  A
C777        N778   1.365       .  A
C777        C797   1.464       .  S
N778        C779   1.365       .  A
C779        N780   1.357       .  A
C779        C826   1.471       .  S
C781        N782   1.355       .  A
C781        N786   1.355       .  A
C781        C875   1.468       .  S
N782        C783   1.356       .  A
C783        N784   1.364       .  A
C783        C838   1.470       .  S
N784        C785   1.364       .  A
C785        N786   1.357       .  A
C785        C796   1.463       .  S
C787        N788   1.355       .  A
C787        N792   1.354       .  A
C787        C893   1.469       .  S
N788        C789   1.357       .  A
C789        N790   1.364       .  A
C789        C822   1.471       .  S
N790        C791   1.365       .  A
C791        N792   1.356       .  A
C791        C801   1.465       .  S
O793       Cd798   2.488       .  S
C794        C835   1.466       .  S
C794        O803   1.262       .  A
C794        O799   1.273       .  A
O795       Cd798   2.469       .  S
O795        C801   1.272       .  A
C796        O804   1.263       .  A
C797        O800   1.263       .  A
Cd798       O805   2.448       .  S
Cd798       O803   2.431       .  S
Cd798       O799   2.495       .  S
Cd798       O802   2.490       .  S
C801        O805   1.263       .  A
C806        N807   1.355       .  A
N807        C808   1.357       .  A
C808        N809   1.366       .  A
C808        C821   1.474       .  S
N809        C810   1.366       .  A
C812        N813   1.356       .  A
C812        N817   1.353       .  A
C812        C860   1.467       .  S
N813        C814   1.359       .  A
C814        N815   1.367       .  A
C814        C819   1.474       .  S
N815        C816   1.366       .  A
C816        N817   1.355       .  A
C816        C845   1.471       .  S
O818       Cd823   2.473       .  S
O818        C821   1.266       .  A
C819        O828   1.262       .  A
C819        O824   1.267       .  A
O820       Cd823   2.472       .  S
O820        C826   1.265       .  A
C821        O829   1.262       .  A
C822        O827   1.264       .  A
C822        O825   1.262       .  A
Cd823       O830   2.493       .  S
Cd823       O829   2.498       .  S
Cd823       O828   2.484       .  S
Cd823       O824   2.483       .  S
Cd823       O827   2.459       .  S
Cd823       O825   2.499       .  S
C826        O830   1.261       .  A
C831        N836   1.356       .  A
C833        N834   1.364       .  A
N834        C835   1.363       .  A
C835        N836   1.356       .  A
O837       Cd842   2.476       .  S
O837        C840   1.265       .  A
C838        O976   1.261       .  A
C838        O843   1.265       .  A
O839       Cd971   2.460       .  S
O839        C845   1.265       .  A
C840        O977   1.261       .  A
C841        O846   1.268       .  A
C841        O973   1.260       .  A
Cd842       O968   2.472       .  S
Cd842       O849   2.504       .  S
Cd842       O977   2.493       .  S
Cd842       O976   2.492       .  S
Cd842       O843   2.469       .  S
Cd842       O975   2.479       .  S
Cd842       O844   2.506       .  S
O844        C970   1.262       .  A
C845        O978   1.261       .  A
O846       Cd971   2.491       .  S
O847       Cd971   2.497   1_556  S
O847        C967   1.261       .  A
O848       Cd971   2.488   1_556  S
O848        C969   1.261       .  A
O849        C974   1.262       .  A
C850        C855   1.385       .  A
C851        C852   1.401       .  A
C852        C861   1.375       .  A
C852        C853   1.385       .  A
C853        N859   1.341       .  A
C853        C854   1.400       .  A
C854        H863   1.082       .  S
C855        C858   1.373       .  A
N856        H866   1.044       .  S
C857        C858   1.393       .  A
C858        H864   1.082       .  S
N859        C860   1.354       .  A
N859        H867   1.045       .  S
C860        C861   1.395       .  A
C861        H865   1.082       .  S
C868        N874   1.342       .  A
C868        C869   1.401       .  A
C869        C870   1.401       .  A
C869        H880   1.082       .  S
C870        C879   1.376       .  A
C870        C871   1.385       .  A
C872        C873   1.398       .  A
C873        C876   1.372       .  A
N874        H884   1.045       .  S
C875        C876   1.393       .  A
C876        H882   1.082       .  S
N877        H885   1.045       .  S
C878        C879   1.395       .  A
C879        H883   1.082       .  S
C886        N892   1.340       .  A
C886        C891   1.385       .  A
C886        C887   1.399       .  A
C887        C888   1.398       .  A
C887        H898   1.082       .  S
C889        C890   1.404       .  A
C890        H899   1.082       .  S
C891        C894   1.378       .  A
N892        C893   1.354       .  A
N892        H902   1.044       .  S
C893        C894   1.396       .  A
C894        H900   1.082       .  S
N895        C896   1.354       .  A
N895        H903   1.046       .  S
C897        H901   1.082       .  S
C904        N905   1.355       .  A
C904        N909   1.355       .  A
C904       C1025   1.468       .  S
N905        C906   1.356       .  A
C906        N907   1.364       .  A
C906        C926   1.465       .  S
N907        C908   1.364       .  A
C908        N909   1.357       .  A
C908        C955   1.471       .  S
C910        N911   1.355       .  A
C910        N915   1.356       .  A
C910       C1004   1.468       .  S
N911        C912   1.356       .  A
C912        N913   1.365       .  A
C912        C967   1.473       .  S
N913        C914   1.365       .  A
C914        N915   1.357       .  A
C914        C925   1.469       .  S
C916        N917   1.355       .  A
C916        N921   1.355       .  A
C916       C1022   1.467       .  S
N917        C918   1.356       .  A
C918        N919   1.364       .  A
C918        C951   1.471       .  S
N919        C920   1.365       .  A
C920        N921   1.357       .  A
C920        C930   1.466       .  S
O922       Cd927   2.483       .  S
C923        C964   1.463       .  S
C923        O932   1.262       .  A
C923        O928   1.271       .  A
O924       Cd927   2.488       .  S
O924        C930   1.271       .  A
C925        O933   1.263       .  A
C926        O929   1.263       .  A
Cd927       O934   2.443       .  S
Cd927       O932   2.432       .  S
Cd927       O928   2.490       .  S
Cd927       O931   2.481       .  S
C930        O934   1.263       .  A
C935        N936   1.354       .  A
N936        C937   1.357       .  A
C937        N938   1.367       .  A
C937        C950   1.472       .  S
N938        C939   1.367       .  A
C941        N942   1.356       .  A
C941        N946   1.354       .  A
C941        C989   1.469       .  S
N942        C943   1.358       .  A
C943        N944   1.367       .  A
C943        C948   1.475       .  S
N944        C945   1.367       .  A
C945        N946   1.357       .  A
C945        C974   1.475       .  S
O947       Cd952   2.488       .  S
O947        C950   1.268       .  A
C948        O957   1.262       .  A
C948        O953   1.267       .  A
O949       Cd952   2.481       .  S
O949        C955   1.266       .  A
C950        O958   1.260       .  A
C951        O956   1.266       .  A
C951        O954   1.261       .  A
Cd952       O959   2.492       .  S
Cd952       O958   2.481       .  S
Cd952       O957   2.491       .  S
Cd952       O953   2.482       .  S
Cd952       O956   2.472       .  S
Cd952       O954   2.486       .  S
C955        O959   1.260       .  A
C960        N965   1.355       .  A
C962        N963   1.363       .  A
N963        C964   1.363       .  A
C964        N965   1.356       .  A
O966       Cd971   2.487   1_556  S
O966        C969   1.268       .  A
C967        O972   1.266       .  A
O968        C974   1.267       .  A
C970        O975   1.267       .  A
Cd971       O978   2.502       .  S
Cd971       O972   2.473   1_554  S
Cd971       O973   2.463       .  S
C979        C984   1.385       .  A
C980        C981   1.402       .  A
C981        C990   1.376       .  A
C981        C982   1.385       .  A
C982        N988   1.341       .  A
C982        C983   1.400       .  A
C983        H992   1.082       .  S
C984        C987   1.374       .  A
N985        H995   1.045       .  S
C986        C987   1.394       .  A
C987        H993   1.082       .  S
N988        C989   1.354       .  A
N988        H996   1.045       .  S
C989        C990   1.396       .  A
C990        H994   1.082       .  S
C997       N1003   1.342       .  A
C997        C998   1.402       .  A
C998        C999   1.401       .  A
C998       H1009   1.082       .  S
C999       C1008   1.376       .  A
C999       C1000   1.385       .  A
C1001      C1002   1.399       .  A
C1002      C1005   1.374       .  A
N1003      H1013   1.045       .  S
C1004      C1005   1.394       .  A
C1005      H1011   1.082       .  S
N1006      H1014   1.045       .  S
C1007      C1008   1.395       .  A
C1008      H1012   1.082       .  S
C1015      N1021   1.340       .  A
C1015      C1020   1.385       .  A
C1015      C1016   1.399       .  A
C1016      C1017   1.398       .  A
C1016      H1027   1.082       .  S
C1018      C1019   1.403       .  A
C1019      H1028   1.082       .  S
C1020      C1023   1.378       .  A
N1021      C1022   1.354       .  A
N1021      H1031   1.044       .  S
C1022      C1023   1.396       .  A
C1023      H1029   1.082       .  S
N1024      C1025   1.354       .  A
N1024      H1032   1.046       .  S
C1026      H1030   1.082       .  S
