geometry optimzed in LAMMPS
_audit_creation_date              2020-11-30 
_audit_creation_method            'lammps2cif' 
_symmetry_space_group_name_H-M    'P1' 
_symmetry_Int_Tables_number       1 
_symmetry_cell_setting            triclinic 
loop_ 
_symmetry_equiv_pos_as_xyz 
  x,y,z 
_cell_length_a                    32.56181038 
_cell_length_b                    32.92921992238005 
_cell_length_c                    42.598905563833604 
_cell_angle_alpha                 89.69444855372224 
_cell_angle_beta                  89.6779344208439 
_cell_angle_gamma                 120.72868658386602 
loop_ 
_atom_site_label 
_atom_site_type_symbol 
_atom_site_fract_x 
_atom_site_fract_y 
_atom_site_fract_z 
_atom_site_charge 
O1          O  0.46318890  0.39328477  0.32215678    -0.75800
O2          O  0.40578432  0.35510916  0.28570094    -0.54800
C3          C  0.42326834  0.35816712  0.31307375     0.77900
O4          O  0.50255521  0.59181877  0.32890404    -0.60400
O5          O  0.56865505  0.63092807  0.29744094    -0.53500
C6          C  0.54500850  0.62681590  0.32257175     0.69900
O7          O  0.37327145  0.44124743  0.32209585    -0.75000
O8          O  0.35028981  0.38711198  0.28319200    -0.55600
C9          C  0.34445830  0.40006209  0.31029869     0.75900
O10         O  0.60222002  0.52659216  0.31851178    -0.60100
O11         O  0.62608288  0.59579661  0.29266732    -0.53300
C12         C  0.63102100  0.57119149  0.31416103     0.72500
Zr13       Zr  0.52921078  0.46163572  0.29620522     2.54700
O14         O  0.54933418  0.44541146  0.34795037    -0.80700
O15         O  0.56731644  0.41714628  0.28165839    -0.94100
Zr16       Zr  0.44413870  0.51652325  0.30317377     2.64700
O17         O  0.42597898  0.51292864  0.35907294    -0.99100
O18         O  0.39383368  0.55074283  0.29637404    -0.81100
O19         O  0.45700321  0.45625053  0.29265605    -0.84500
O20         O  0.52303162  0.52946287  0.30322361    -2.19200
O21         O  0.61013225  0.54901221  0.18796005    -0.67900
O22         O  0.62873503  0.60693175  0.22374993    -0.52500
C23         C  0.63730572  0.59156926  0.19852499     0.70900
O24         O  0.38747011  0.46432202  0.18087095    -0.60800
O25         O  0.35753638  0.39745413  0.21044368    -0.52800
C26         C  0.35723000  0.42024408  0.18599907     0.72700
O27         O  0.51011146  0.60926674  0.19108852    -0.72200
O28         O  0.57352848  0.64153447  0.22407287    -0.50900
C29         C  0.55225375  0.64232950  0.19898436     0.74100
O30         O  0.47172491  0.40415044  0.17640361    -0.67500
O31         O  0.41355367  0.36057214  0.21237967    -0.54700
C32         C  0.43215145  0.36682717  0.18498988     0.72400
Zr33       Zr  0.53420225  0.47509862  0.20400123     2.77500
O34         O  0.55014717  0.47118068  0.14848447    -0.98300
O35         O  0.58017403  0.43663339  0.21268174    -0.79100
Zr36       Zr  0.44930959  0.53056784  0.21049637     2.70100
O37         O  0.43367867  0.55144737  0.15880778    -0.80300
O38         O  0.39407359  0.55664149  0.22492562    -0.99400
Zr39       Zr  0.41843758  0.41671895  0.24929964     2.21500
Zr40       Zr  0.56078061  0.57675051  0.25762684     2.11100
O41         O  0.52765842  0.54305576  0.20794867    -2.48100
O42         O  0.46104267  0.46808155  0.21027953    -0.80100
O43         O  0.57151244  0.51051188  0.25237601    -0.72300
O44         O  0.40647418  0.48202356  0.25452615    -2.33300
O45         O  0.49513173  0.42378943  0.24785866    -2.29500
O46         O  0.48316100  0.56791713  0.25912867    -0.74100
H47         H  0.53843306  0.54404671  0.32265706     0.77900
H48         H  0.37265264  0.47224766  0.25435624     0.79000
H49         H  0.54455435  0.56235794  0.19002174     0.81200
H50         H  0.49282994  0.39351285  0.24587546     0.78800
H51         H  0.36079068  0.52330498  0.29682258     0.41900
H52         H  0.40691128  0.58756372  0.21414499     0.40800
H53         H  0.45290982  0.54448148  0.14411595     0.40500
H54         H  0.55402613  0.50051023  0.13907287     0.38400
H55         H  0.61387204  0.46280525  0.21231173     0.41600
H56         H  0.54333105  0.38395366  0.28707667     0.36400
H57         H  0.53878706  0.46142861  0.36276090     0.42500
H58         H  0.45572658  0.51976713  0.36978864     0.38900
H59         H  0.58256180  0.47550162  0.14775487     0.43800
H60         H  0.59283927  0.42624304  0.29733446     0.42500
H61         H  0.42307817  0.54099168  0.36299635     0.42700
H62         H  0.36448515  0.53517725  0.21341839     0.43000
O63         O  0.06591142  0.45573394  0.31759126    -0.75800
O64         O  0.04107338  0.40157475  0.27858046    -0.54800
C65         C  0.05723978  0.41584138  0.30613782     0.77900
O66         O  0.90997397  0.51503500  0.31709986    -0.60400
O67         O  0.94894283  0.58332057  0.28866907    -0.53500
C68         C  0.92292351  0.55866949  0.31206167     0.69900
O69         O  0.92237173  0.38695145  0.31546581    -0.75000
O70         O  0.94889129  0.35544661  0.27903445    -0.55600
C71         C  0.93108193  0.35500115  0.30604262     0.75900
O72         O  0.07497391  0.59848999  0.32154260    -0.60100
O73         O  0.04295199  0.63018617  0.28921019    -0.53300
C74         C  0.06400065  0.63013362  0.31449885     0.72500
Zr75       Zr  0.06518483  0.52570088  0.29654981     2.54700
O76         O  0.08657924  0.53287411  0.35177565    -0.80700
O77         O  0.15104929  0.56601626  0.28742910    -0.94100
Zr78       Zr  0.92153706  0.45433922  0.29186994     2.64700
O79         O  0.88462022  0.42770143  0.34364042    -0.99100
O80         O  0.83789440  0.40941984  0.27692460    -0.81100
O81         O  0.99349755  0.45885737  0.28752612    -0.84500
O82         O  0.99343949  0.52756670  0.29748099    -2.19200
O83         O  0.08299053  0.61290049  0.18456889    -0.67900
O84         O  0.04594148  0.63828163  0.21779432    -0.52500
C85         C  0.07036306  0.64260378  0.19290942     0.70900
O86         O  0.92636405  0.39887495  0.17155682    -0.60800
O87         O  0.95136395  0.36303130  0.20578452    -0.52800
C88         C  0.93436045  0.36559802  0.17933691     0.72700
O89         O  0.91872561  0.53209163  0.18087240    -0.72200
O90         O  0.95140627  0.58987410  0.21767860    -0.50900
C91         C  0.93033484  0.57330836  0.19156567     0.74100
O92         O  0.07787623  0.47584515  0.17561070    -0.67500
O93         O  0.04272293  0.40891559  0.20540077    -0.54700
C94         C  0.06626176  0.43276733  0.18107334     0.72400
Zr95       Zr  0.07238824  0.53743911  0.20379737     2.77500
O96         O  0.10493592  0.55401799  0.15048817    -0.98300
O97         O  0.15633956  0.57758184  0.21804058    -0.79100
Zr98       Zr  0.92870584  0.46576737  0.19907493     2.70100
O99         O  0.91193734  0.46355108  0.14326391    -0.80300
O100        O  0.84243730  0.41785684  0.20582973    -0.99400
Zr101      Zr  0.99626460  0.42128759  0.24417922     2.21500
Zr102      Zr  0.99745786  0.57099776  0.25146642     2.11100
O103        O  0.00074263  0.53926803  0.20196987    -2.48100
O104        O  0.00001784  0.46918395  0.20491509    -0.80100
O105        O  0.07197853  0.57334918  0.25211968    -0.72300
O106        O  0.92124078  0.41778800  0.24358271    -2.33300
O107        O  0.07173011  0.49267087  0.24819945    -2.29500
O108        O  0.92257594  0.49894207  0.24737151    -0.74100
H109        H  0.99232281  0.54167724  0.31697827     0.77900
H110        H  0.89476226  0.38597601  0.24204048     0.79000
H111        H  0.00148223  0.55744572  0.18396999     0.81200
H112        H  0.09815668  0.48712107  0.24793165     0.78800
H113        H  0.82692557  0.37674896  0.28408028     0.41900
H114        H  0.83272040  0.44059648  0.21229935     0.40800
H115        H  0.94351577  0.47694356  0.13279137     0.40500
H116        H  0.08115817  0.55688762  0.13777871     0.38400
H117        H  0.16577616  0.61121992  0.21980958     0.41600
H118        H  0.16348613  0.55713843  0.30574773     0.36400
H119        H  0.05626582  0.51125486  0.36293101     0.42500
H120        H  0.90698917  0.45206239  0.35835742     0.38900
H121        H  0.13312822  0.58641578  0.15107241     0.43800
H122        H  0.16212382  0.59984520  0.29056708     0.42500
H123        H  0.85620873  0.43128035  0.34347270     0.42700
H124        H  0.83015068  0.40894037  0.18421915     0.43000
O125        O  0.38804907  0.92941537  0.32268688    -0.75800
O126        O  0.35441104  0.95629340  0.28797219    -0.54800
C127        C  0.35487535  0.93760006  0.31434231     0.77900
O128        O  0.60529396  0.08729426  0.31736957    -0.60400
O129        O  0.63427644  0.05076778  0.28692638    -0.53500
C130        C  0.63629112  0.07499708  0.31104642     0.69900
O131        O  0.46203468  0.07582340  0.32153023    -0.75000
O132        O  0.39879192  0.04588402  0.28852363    -0.55600
C133        C  0.41941305  0.06560049  0.31426925     0.75900
O134        O  0.52308067  0.92370560  0.31791074    -0.60100
O135        O  0.58754583  0.95900527  0.28497237    -0.53300
C136        C  0.56615088  0.93540472  0.30984592     0.72500
Zr137      Zr  0.45786678  0.93345111  0.29680169     2.54700
O138        O  0.44541960  0.90562234  0.35104101    -0.80700
O139        O  0.41243627  0.84945130  0.28537311    -0.94100
Zr140      Zr  0.52948835  0.07542711  0.29585663     2.64700
O141        O  0.54087017  0.10264506  0.35000870    -0.99100
O142        O  0.56803718  0.15936466  0.28345511    -0.81100
O143        O  0.46105671  0.00391618  0.29133832    -0.84500
O144        O  0.53228160  0.00508557  0.29762143    -2.19200
O145        O  0.52232107  0.92367614  0.18268286    -0.67900
O146        O  0.58827210  0.96034664  0.21340314    -0.52500
C147        C  0.56574113  0.93582042  0.18937109     0.70900
O148        O  0.46178010  0.07716797  0.17894188    -0.60800
O149        O  0.40000571  0.04831000  0.21392255    -0.52800
C150        C  0.41962438  0.06754309  0.18754005     0.72700
O151        O  0.60502553  0.08694459  0.18083977    -0.72200
O152        O  0.63460210  0.05306995  0.21339122    -0.50900
C153        C  0.63633885  0.07549733  0.18825543     0.74100
O154        O  0.38899425  0.93120537  0.17892129    -0.67500
O155        O  0.35491560  0.95880814  0.21272525    -0.54700
C156        C  0.35601554  0.94004450  0.18663290     0.72400
Zr157      Zr  0.45760370  0.93359666  0.20436775     2.77500
O158        O  0.44095886  0.90677537  0.15016163    -0.98300
O159        O  0.41273745  0.84945045  0.21657941    -0.79100
Zr160      Zr  0.52924644  0.07536490  0.20332665     2.70100
O161        O  0.54201305  0.09943175  0.14829707    -0.80300
O162        O  0.56751757  0.15966338  0.21321750    -0.99400
Zr163      Zr  0.41659339  0.00300976  0.25055296     2.21500
Zr164      Zr  0.57131731  0.00590907  0.24981750     2.11100
O165        O  0.53209881  0.00502337  0.20239010    -2.48100
O166        O  0.46083279  0.00394616  0.20929994    -0.80100
O167        O  0.49790032  0.93158403  0.25034344    -0.72300
O168        O  0.48929828  0.07790490  0.24985342    -2.33300
O169        O  0.41411873  0.92918663  0.25081249    -2.29500
O170        O  0.57249420  0.07919034  0.24937621    -0.74100
H171        H  0.54861660  0.00515329  0.31641922     0.77900
H172        H  0.48359081  0.10408962  0.24981948     0.79000
H173        H  0.54845605  0.00515503  0.18343696     0.81200
H174        H  0.38225975  0.90280289  0.25102573     0.78800
H175        H  0.55934950  0.17287986  0.30121888     0.41900
H176        H  0.59667505  0.17400590  0.19987510     0.40800
H177        H  0.52842870  0.06946485  0.13657860     0.40500
H178        H  0.46854519  0.93109987  0.13780628     0.38400
H179        H  0.42733379  0.83576023  0.20303835     0.41600
H180        H  0.38017882  0.83863394  0.29410721     0.36400
H181        H  0.46305670  0.93467829  0.36362552     0.42500
H182        H  0.54372654  0.07859796  0.36228297     0.38900
H183        H  0.44403305  0.87838532  0.14935629     0.43800
H184        H  0.42591448  0.83533866  0.29952962     0.42500
H185        H  0.57314201  0.13127308  0.35050563     0.42700
H186        H  0.54644075  0.16920101  0.20300928     0.43000
C187        C  0.08477171  0.20598479  0.36882110     0.79700
N188        N  0.13331165  0.22473583  0.36712309    -0.78600
C189        C  0.16305556  0.27286173  0.36529977     0.82100
N190        N  0.14418340  0.30104090  0.36446896    -0.78600
C191        C  0.09666117  0.28311085  0.36501618     0.82200
N192        N  0.06697414  0.23552128  0.36719697    -0.80300
C193        C  0.12957512  0.27340239  0.07819014     0.79700
N194        N  0.17477423  0.28922545  0.08867557    -0.78600
C195        C  0.19901505  0.33172105  0.10326898     0.82100
N196        N  0.17729708  0.35672751  0.10858132    -0.78600
C197        C  0.13192667  0.34045183  0.09944911     0.82200
N198        N  0.10789272  0.29858288  0.08426782    -0.80300
C199        C  0.12627993  0.86037264  0.07964738     0.79700
N200        N  0.17275004  0.88886381  0.08848029    -0.78600
C201        C  0.19346915  0.87217824  0.10822658     0.82100
N202        N  0.16758980  0.82787175  0.11963994    -0.78600
C203        C  0.12149176  0.79952118  0.11174904     0.82200
N204        N  0.10014858  0.81563208  0.09186692    -0.80300
C205        C  0.87365980  0.12830423  0.10118099     0.79700
N206        N  0.89860020  0.17636728  0.10233182    -0.78600
C207        C  0.87571603  0.20050350  0.10780557     0.82100
N208        N  0.82810106  0.17637273  0.11273755    -0.78600
C209        C  0.80268100  0.12868551  0.11284284     0.82200
N210        N  0.82557831  0.10425983  0.10738142    -0.80300
C211        C  0.86052382  0.13463572  0.41946926     0.79700
N212        N  0.81347434  0.11093389  0.41074512    -0.78600
C213        C  0.79673657  0.13229785  0.39142928     0.82100
N214        N  0.82706577  0.17598473  0.38033295    -0.78600
C215        C  0.87364047  0.19916972  0.38781721     0.82200
N216        N  0.89091767  0.17866433  0.40732912    -0.80300
C217        C  0.26673627  0.13636980  0.42498196     0.79700
N218        N  0.28516360  0.18149819  0.41419260    -0.78600
C219        C  0.32311592  0.20021238  0.39409542     0.82100
N220        N  0.34154532  0.17390072  0.38431616    -0.78600
C221        C  0.32309767  0.12901211  0.39431742     0.82200
N222        N  0.28521570  0.10980948  0.41447360    -0.80300
C223        C  0.10806613  0.86278142  0.39590591     0.79700
N224        N  0.08677821  0.81499909  0.39250101    -0.78600
C225        C  0.11370481  0.79497051  0.38639182     0.82100
N226        N  0.16151143  0.82293165  0.38336234    -0.78600
C227        C  0.18315883  0.87035225  0.38563319     0.82200
N228        N  0.15633338  0.89052556  0.39150646    -0.80300
C229        C  0.24394180  0.13097539  0.10395503     0.79700
N230        N  0.26531116  0.10492898  0.10862447    -0.78600
C231        C  0.31310829  0.12697695  0.11443041     0.82100
N232        N  0.33882586  0.17454685  0.11625277    -0.78600
C233        C  0.31813121  0.20082526  0.11303673     0.82200
N234        N  0.27036986  0.17891792  0.10713725    -0.80300
O235        O  0.01509060  0.03933809  0.40053198    -0.87000
O236        O  0.05090276  0.10480557  0.07244102    -0.87200
O237        O  0.98677747  0.11869642  0.46883774    -0.88900
O238        O  0.12344856  0.12167039  0.47173895    -0.87600
O239        O  0.14208866  0.06427978  0.48051580    -0.87200
O240        O  0.90882775  0.06113495  0.47780765    -0.88600
O241        O  0.06931142  0.14460904  0.02508691    -0.87100
O242        O  0.04953662  0.10687081  0.43027765    -0.86700
Zr243      Zr  0.03768932  0.08644225  0.48444566     2.84300
O244        O  0.06079624  0.05281972  0.02250068    -1.08600
O245        O  0.96656229  0.02788190  0.46181906    -1.09400
C246        C  0.03909458  0.08530015  0.40397184     1.06100
C247        C  0.07076673  0.14291777  0.05540817     1.06000
C248        C  0.94111170  0.10181216  0.46696986     1.09000
C249        C  0.15233439  0.10552268  0.47080717     1.06800
H250        H  0.97465799  0.07846714  0.03005441     0.32300
O251        O  0.97904658  0.05343422  0.02225923    -1.29600
H252        H  0.07155809  0.04052152  0.44447027     0.32000
O253        O  0.04760705  0.02751645  0.46093826    -1.31300
O254        O  0.96460641  0.94984308  0.10037140    -0.87000
O255        O  0.92984700  0.88431026  0.42802392    -0.88500
O256        O  0.88590528  0.02139292  0.04519572    -0.87100
O257        O  0.12254507  0.02596660  0.04542011    -0.87200
O258        O  0.09100836  0.96541390  0.45337152    -0.86900
O259        O  0.85688266  0.96358130  0.45656922    -0.86700
O260        O  0.86018884  0.86963403  0.03394229    -0.87100
O261        O  0.99494844  0.86917837  0.03112785    -0.86500
O262        O  0.84040784  0.92592382  0.02390668    -0.87600
O263        O  0.07248797  0.92689158  0.02115381    -0.86700
O264        O  0.94238542  0.03900557  0.08325012    -0.87100
O265        O  0.89776614  0.95137601  0.41705742    -0.86900
O266        O  0.03355767  0.94783818  0.41610657    -0.86500
O267        O  0.08221479  0.04143694  0.08358768    -0.86900
O268        O  0.93417257  0.88236567  0.07080240    -0.87200
O269        O  0.91484241  0.84394073  0.97432393    -0.88600
Zr270      Zr  0.00227810  0.01978893  0.06269975     2.83100
Zr271      Zr  0.97645094  0.96933735  0.43796194     2.83500
Zr272      Zr  0.90852160  0.99371589  0.99953522     2.84100
Zr273      Zr  0.07214537  0.99496205  0.99968311     2.83400
Zr274      Zr  0.94416548  0.90226372  0.01649819     2.84200
O275        O  0.00137316  0.93582839  0.47728954    -1.09100
O276        O  0.93286310  0.96092341  0.03858518    -1.08600
C277        C  0.94296406  0.90387894  0.09709727     1.06000
C278        C  0.91200032  0.84604352  0.44482377     1.08700
C279        C  0.90412640  0.03704132  0.07234133     1.06200
C280        C  0.11958501  0.04144612  0.07254543     1.06600
C281        C  0.07174971  0.94931308  0.42649658     1.06200
C282        C  0.86028586  0.95047980  0.42870009     1.05700
C283        C  0.83152894  0.88606682  0.03571073     1.06100
C284        C  0.04070391  0.88612836  0.03219205     1.05600
H285        H  0.88882362  0.91013150  0.47137602     0.32300
O286        O  0.91910551  0.93514523  0.47897684    -1.30200
H287        H  0.02506286  0.94982070  0.05628943     0.32300
O288        O  0.01440054  0.96214237  0.03959048    -1.31600
C289        C  0.71857818  0.85856039  0.08431580     0.79700
N290        N  0.70056487  0.88628208  0.09329845    -0.78600
C291        C  0.66066721  0.86801255  0.11166521     0.82100
N292        N  0.63964691  0.82286034  0.12145228    -0.78600
C293        C  0.65753148  0.79532497  0.11367136     0.82200
N294        N  0.69764773  0.81307521  0.09530919    -0.80300
C295        C  0.73496030  0.86467477  0.39753686     0.79700
N296        N  0.71668256  0.89276544  0.39024337    -0.78600
C297        C  0.66938097  0.87279802  0.38357313     0.82100
N298        N  0.64121708  0.82537065  0.38328942    -0.78600
C299        C  0.65883233  0.79694317  0.38916492     0.82200
N300        N  0.70603541  0.81669376  0.39620809    -0.80300
C301        C  0.89793410  0.78287673  0.13457858     0.79700
N302        N  0.91584942  0.75331292  0.13485660    -0.78600
C303        C  0.88654737  0.70594550  0.13899870     0.82100
N304        N  0.83946542  0.68831286  0.14298092    -0.78600
C305        C  0.82054515  0.71640095  0.14345705     0.82200
N306        N  0.84978875  0.76433616  0.13942825    -0.80300
C307        C  0.86287249  0.71807150  0.41856141     0.79700
N308        N  0.88596626  0.69434804  0.41176127    -0.78600
C309        C  0.86273133  0.65260031  0.39627611     0.82100
N310        N  0.81709998  0.63522408  0.38753935    -0.78600
C311        C  0.79420694  0.65888330  0.39332607     0.82200
N312        N  0.81732638  0.70105200  0.40833494    -0.80300
C313        C  0.93048758  0.83213074  0.12273836    -0.17000
C314        C  0.92446164  0.86998170  0.12423813    -0.32200
H315        H  0.95910155  0.83555064  0.10753602     0.12000
H316        H  0.89802936  0.86981487  0.13995051     0.12600
C317        C  0.76153070  0.87983371  0.06351490    -0.17000
C318        C  0.78603618  0.85882886  0.05413820    -0.32200
H319        H  0.77442815  0.91611211  0.05626846     0.12000
H320        H  0.77473364  0.82317071  0.06200669     0.12600
C321        C  0.81655112  0.93214862  0.40964887    -0.17000
C322        C  0.78555173  0.88529338  0.40749849    -0.32200
H323        H  0.80519037  0.95680442  0.40311521     0.12000
H324        H  0.79649172  0.86100689  0.41583661     0.12600
C325        C  0.88623103  0.80099625  0.42765440    -0.17000
C326        C  0.88787718  0.76257760  0.43631013    -0.32200
H327        H  0.86754335  0.80010429  0.40636750     0.12000
H328        H  0.91044326  0.76471177  0.45568298     0.12600
C329        C  0.16385627  0.06117057  0.09135408    -0.17000
C330        C  0.19248043  0.10817916  0.09519868    -0.32200
H331        H  0.17816255  0.03824352  0.09566857     0.12000
H332        H  0.17898577  0.13124599  0.08892152     0.12600
C333        C  0.07843218  0.88360933  0.40499893    -0.17000
C334        C  0.09616068  0.93052283  0.40717984    -0.32200
H335        H  0.04196134  0.85947972  0.41285002     0.12000
H336        H  0.13334070  0.95481043  0.40099060     0.12600
C337        C  0.22472149  0.11411319  0.44611180    -0.17000
C338        C  0.19949152  0.13441816  0.45510628    -0.32200
H339        H  0.21220757  0.07766647  0.45270645     0.12000
H340        H  0.21083080  0.17033824  0.44783925     0.12600
C341        C  0.92432747  0.12997329  0.44953007    -0.17000
C342        C  0.87822709  0.11078941  0.44053510    -0.32200
H343        H  0.95079466  0.16541002  0.44172822     0.12000
H344        H  0.85218753  0.07493714  0.44786332     0.12600
C345        C  0.87975828  0.05676130  0.09070612    -0.17000
C346        C  0.90014038  0.10386077  0.09324741    -0.32200
H347        H  0.84171152  0.03421493  0.09527929     0.12000
H348        H  0.93746556  0.12608649  0.08637354     0.12600
C349        C  0.10513593  0.88053001  0.05838499    -0.17000
C350        C  0.05882025  0.85896887  0.04951945    -0.32200
H351        H  0.12941941  0.91679120  0.05091046     0.12000
H352        H  0.03363216  0.82328308  0.05759344     0.12600
C353        C  0.10316223  0.22860899  0.06101041    -0.17000
C354        C  0.09825179  0.18815084  0.07221274    -0.32200
H355        H  0.08434509  0.22820125  0.03992282     0.12000
H356        H  0.11327836  0.18792951  0.09489164     0.12600
C357        C  0.05051826  0.15557510  0.37746293    -0.17000
C358        C  0.05861203  0.11910060  0.37702312    -0.32200
H359        H  0.01886504  0.14998054  0.39011081     0.12000
H360        H  0.08908162  0.12235050  0.36422080     0.12600
C361        C  0.63984351  0.93505646  0.17336864    -0.13900
C362        C  0.59237574  0.92266552  0.16721366     0.08200
C363        C  0.57129132  0.89891381  0.13918668    -0.13900
C364        C  0.59607168  0.88556821  0.11880520    -0.13900
C365        C  0.64276905  0.89668375  0.12558096     0.08200
C366        C  0.66486408  0.92246999  0.15263842    -0.13900
H367        H  0.65719655  0.95301894  0.19477984     0.12200
H368        H  0.53503056  0.88914484  0.13348774     0.12200
H369        H  0.57776985  0.86406872  0.09866115     0.12200
H370        H  0.70008300  0.92955351  0.15901346     0.12200
C371        C  0.68769709  0.11765838  0.14083835    -0.13900
C372        C  0.67571652  0.08568410  0.16591419     0.08200
C373        C  0.70108567  0.06170764  0.16924914    -0.13900
C374        C  0.73927329  0.07145467  0.14926434    -0.13900
C375        C  0.75370518  0.10624260  0.12589955     0.08200
C376        C  0.72663161  0.12817091  0.12122744    -0.13900
H377        H  0.66842767  0.13605416  0.13723628     0.12200
H378        H  0.69244450  0.03633791  0.18804865     0.12200
H379        H  0.75985892  0.05462671  0.15379561     0.12200
H380        H  0.73737453  0.15553308  0.10347628     0.12200
C381        C  0.68469154  0.11928736  0.35816421    -0.13900
C382        C  0.67506924  0.08674004  0.33403975     0.08200
C383        C  0.70133810  0.06347575  0.33305340    -0.13900
C384        C  0.73741598  0.07377361  0.35484520    -0.13900
C385        C  0.74859907  0.10813623  0.37778967     0.08200
C386        C  0.72144046  0.13027247  0.37950447    -0.13900
H387        H  0.66504908  0.13761066  0.35985170     0.12200
H388        H  0.69481812  0.03805344  0.31493149     0.12200
H389        H  0.75904895  0.05763042  0.35220376     0.12200
H390        H  0.73060980  0.15819311  0.39627897     0.12200
C391        C  0.57588107  0.90039413  0.35994345    -0.13900
C392        C  0.59447302  0.92326599  0.33097948     0.08200
C393        C  0.64173579  0.93642599  0.32270766    -0.13900
C394        C  0.66890802  0.92519025  0.34219429    -0.13900
C395        C  0.64910598  0.89971508  0.37004302     0.08200
C396        C  0.60281295  0.88830708  0.37912520    -0.13900
H397        H  0.54002695  0.89043473  0.36730912     0.12200
H398        H  0.65745248  0.95424821  0.30063900     0.12200
H399        H  0.70385820  0.93292895  0.33421356     0.12200
H400        H  0.58650974  0.86760736  0.40024125     0.12200
C401        C  0.31429239  0.06987864  0.15180153    -0.13900
C402        C  0.33592730  0.10145036  0.12662497     0.08200
C403        C  0.38445788  0.11868581  0.11979477    -0.13900
C404        C  0.41154259  0.10664295  0.13890231    -0.13900
C405        C  0.39079671  0.07794362  0.16561203     0.08200
C406        C  0.34158674  0.05885656  0.17137319    -0.13900
H407        H  0.27734304  0.05711247  0.15806545     0.12200
H408        H  0.40211116  0.14385476  0.10078559     0.12200
H409        H  0.44916367  0.12162911  0.13362613     0.12200
H410        H  0.32434850  0.03658988  0.19170463     0.12200
C411        C  0.31680466  0.90956474  0.13430450    -0.13900
C412        C  0.31718490  0.92868969  0.16385530     0.08200
C413        C  0.27988602  0.93686371  0.17146903    -0.13900
C414        C  0.24215415  0.92417210  0.15077271    -0.13900
C415        C  0.24042333  0.90236113  0.12226807     0.08200
C416        C  0.27845831  0.89600895  0.11387735    -0.13900
H417        H  0.34504852  0.90311155  0.12750414     0.12200
H418        H  0.27870506  0.95126491  0.19400733     0.12200
H419        H  0.21224369  0.92768205  0.15821553     0.12200
H420        H  0.27691893  0.87768247  0.09247359     0.12200
C421        C  0.26508650  0.88285926  0.38150581    -0.13900
C422        C  0.23284868  0.89795599  0.37419909     0.08200
C423        C  0.24363214  0.92978903  0.34928937    -0.13900
C424        C  0.28362308  0.94293703  0.33026856    -0.08800
C425        C  0.31463736  0.92581620  0.33632690     0.08200
C426        C  0.30598722  0.89713808  0.36296919    -0.13900
H427        H  0.25697368  0.85760583  0.40037996     0.12200
H428        H  0.21881569  0.94098723  0.34269213     0.12200
H429        H  0.28906416  0.96504332  0.30996163     0.12200
H430        H  0.32929773  0.88367871  0.36849159     0.12200
C431        C  0.34487923  0.06524256  0.33068398    -0.13900
C432        C  0.39190954  0.07649915  0.33720987     0.08200
C433        C  0.41231669  0.09838438  0.36585024    -0.13900
C434        C  0.38741884  0.11118778  0.38652200    -0.13900
C435        C  0.34129222  0.10133716  0.37935075     0.08200
C436        C  0.31970889  0.07722092  0.35169209    -0.13900
H437        H  0.32811400  0.04886192  0.30876882     0.12200
H438        H  0.44830827  0.10744345  0.37173934     0.12200
H439        H  0.40524704  0.13131380  0.40723550     0.12200
H440        H  0.28483542  0.07098195  0.34518329     0.12200
C441        C  0.09125495  0.67998311  0.13929514    -0.13900
C442        C  0.08097626  0.68213395  0.17117943     0.08200
C443        C  0.07669428  0.72035047  0.18135561    -0.13900
C444        C  0.08368090  0.75607999  0.16036147    -0.13900
C445        C  0.09558913  0.75466508  0.12886833     0.08200
C446        C  0.09889530  0.71617764  0.11839659    -0.13900
H447        H  0.09407723  0.65066794  0.13056598     0.12200
H448        H  0.06869163  0.72306101  0.20569938     0.12200
H449        H  0.08312038  0.78659552  0.16919674     0.12200
H450        H  0.11017792  0.71555686  0.09452023     0.12200
C451        C  0.88520829  0.59178917  0.15121801    -0.13900
C452        C  0.92260316  0.60663731  0.17262369     0.08200
C453        C  0.95317285  0.65546323  0.17743755    -0.13900
C454        C  0.94488309  0.68864402  0.16311632    -0.13900
C455        C  0.90472162  0.67367617  0.14440446     0.08200
C456        C  0.87591041  0.62513001  0.13753590    -0.13900
H457        H  0.86149100  0.55455803  0.14673050     0.12200
H458        H  0.98238960  0.66806515  0.19372349     0.12200
H459        H  0.96728025  0.72554542  0.16913212     0.12200
H460        H  0.84450791  0.61277155  0.12310789     0.12200
C461        C  0.88543342  0.56070952  0.36355854    -0.13900
C462        C  0.90988113  0.58337136  0.33560203     0.08200
C463        C  0.92434470  0.63121648  0.33100462    -0.13900
C464        C  0.91464235  0.65575475  0.35356508    -0.13900
C465        C  0.88831897  0.63252556  0.38061210     0.08200
C466        C  0.87391298  0.58488311  0.38557815    -0.13900
H467        H  0.87392774  0.52397846  0.36797850     0.12200
H468        H  0.94200274  0.64953875  0.30947341     0.12200
H469        H  0.92402878  0.69181821  0.34855605     0.12200
H470        H  0.85180138  0.56585227  0.40571890     0.12200
C471        C  0.10587107  0.68149373  0.36153695    -0.13900
C472        C  0.07302366  0.66820401  0.33699236     0.08200
C473        C  0.04783812  0.69230761  0.33339039    -0.13900
C474        C  0.05664723  0.72998626  0.35259936    -0.13900
C475        C  0.09243587  0.74599971  0.37517102     0.08200
C476        C  0.11609936  0.72065552  0.38012014    -0.13900
H477        H  0.12548261  0.66346181  0.36519524     0.12200
H478        H  0.02255856  0.68342091  0.31464635     0.12200
H479        H  0.03864427  0.74932885  0.34771637     0.12200
H480        H  0.14443293  0.73285052  0.39718958     0.12200
C481        C  0.94385255  0.29846048  0.16255006    -0.13900
C482        C  0.92489913  0.32778974  0.15672732     0.08200
C483        C  0.89658256  0.31938111  0.13006830    -0.13900
C484        C  0.88431299  0.27997067  0.11131210    -0.13900
C485        C  0.90174279  0.24969092  0.11828956     0.08200
C486        C  0.93357233  0.26076153  0.14306030    -0.13900
H487        H  0.96481505  0.30306298  0.18321648     0.12200
H488        H  0.88155597  0.34134628  0.12489089     0.12200
H489        H  0.85874514  0.27130708  0.09265453     0.12200
H490        H  0.94627969  0.23722753  0.14953880     0.12200
C491        C  0.10734908  0.43216831  0.13086933    -0.13900
C492        C  0.07976207  0.40834998  0.15764466     0.08200
C493        C  0.06475991  0.36034286  0.16192183    -0.13900
C494        C  0.07693029  0.33671865  0.14018893    -0.13900
C495        C  0.10649315  0.36112917  0.11453174     0.08200
C496        C  0.12149770  0.40894126  0.10983397    -0.13900
H497        H  0.11963261  0.46916406  0.12686074     0.12200
H498        H  0.04509217  0.34128567  0.18273317     0.12200
H499        H  0.06669539  0.30034626  0.14491916     0.12200
H500        H  0.14573378  0.42869618  0.09069370     0.12200
C501        C  0.03649010  0.33357008  0.31841861    -0.13900
C502        C  0.06374087  0.38201300  0.32549485     0.08200
C503        C  0.09716311  0.39644798  0.34973470    -0.13900
C504        C  0.10541915  0.36327711  0.36482057    -0.13900
C505        C  0.07911818  0.31509226  0.35666690     0.08200
C506        C  0.04308339  0.30037708  0.33437768    -0.13900
H507        H  0.01110604  0.32134872  0.29947690     0.12200
H508        H  0.11872239  0.43344933  0.35567252     0.12200
H509        H  0.13395808  0.37554152  0.38174040     0.12200
H510        H  0.02298750  0.26381291  0.32714581     0.12200
C511        C  0.91916078  0.27485024  0.31732094    -0.13900
C512        C  0.92184923  0.31637064  0.32814921     0.08200
C513        C  0.91744020  0.32142889  0.36055825    -0.13900
C514        C  0.90819764  0.28480589  0.38148142    -0.13900
C515        C  0.90388628  0.24287498  0.37040229     0.08200
C516        C  0.91085225  0.23872870  0.33832950    -0.13900
H517        H  0.92230819  0.26977712  0.29251606     0.12200
H518        H  0.91974196  0.35315888  0.36966721     0.12200
H519        H  0.90080205  0.28777891  0.40591794     0.12200
H520        H  0.90561102  0.20577190  0.32918022     0.12200
C521        C  0.54971601  0.68431842  0.36331985    -0.13900
C522        C  0.57129182  0.66419849  0.34593386     0.08200
C523        C  0.62081538  0.68291864  0.34868684    -0.13900
C524        C  0.64912458  0.72337883  0.36616330    -0.13900
C525        C  0.62846425  0.74660855  0.38083298     0.08200
C526        C  0.57821872  0.72554960  0.38046546    -0.13900
H527        H  0.51162193  0.67036108  0.36179876     0.12200
H528        H  0.63801485  0.66755159  0.33576468     0.12200
H529        H  0.68753463  0.73873617  0.36570281     0.12200
H530        H  0.56132812  0.74284049  0.39163958     0.12200
C531        C  0.67491489  0.57092236  0.36203940    -0.13900
C532        C  0.67127875  0.59569367  0.33625056     0.08200
C533        C  0.70565750  0.64399762  0.33248303    -0.13900
C534        C  0.74331714  0.66660768  0.35365539    -0.13900
C535        C  0.74780259  0.64099139  0.37840528     0.08200
C536        C  0.71304325  0.59323751  0.38266427    -0.13900
H537        H  0.64905268  0.53383511  0.36586599     0.12200
H538        H  0.70413720  0.66408840  0.31278225     0.12200
H539        H  0.77081174  0.70305949  0.34934193     0.12200
H540        H  0.71678426  0.57258780  0.40110560     0.12200
C541        C  0.73861267  0.64738141  0.13825614    -0.13900
C542        C  0.76899651  0.69232404  0.15123413     0.08200
C543        C  0.75337302  0.70549962  0.17781488    -0.13900
C544        C  0.71005609  0.67304583  0.19249318    -0.13900
C545        C  0.68119617  0.62664015  0.18088211     0.08200
C546        C  0.69520870  0.61494789  0.15283022    -0.13900
H547        H  0.75027702  0.63603179  0.11799004     0.12200
H548        H  0.77645040  0.73920011  0.18882367     0.12200
H549        H  0.70037661  0.68383311  0.21389701     0.12200
H550        H  0.67379203  0.58010304  0.14290134     0.12200
C551        C  0.62866521  0.71425363  0.18149369    -0.13900
C552        C  0.58017787  0.68108196  0.17606104     0.08200
C553        C  0.56060270  0.68194579  0.14688468    -0.13900
C554        C  0.58826332  0.71633082  0.12432420    -0.13900
C555        C  0.63623689  0.74992769  0.13016337     0.08200
C556        C  0.65642357  0.74814228  0.15870440    -0.13900
H557        H  0.64512521  0.71449659  0.20354633     0.12200
H558        H  0.52366360  0.65658588  0.14163984     0.12200
H559        H  0.57144227  0.71850890  0.10301693     0.12200
H560        H  0.69267160  0.77518385  0.16430666     0.12200
C561        C  0.28222446  0.34768545  0.16790212    -0.13900
C562        C  0.31979564  0.39425858  0.16214560     0.08200
C563        C  0.32044042  0.41635609  0.13363884    -0.13900
C564        C  0.28292071  0.39363909  0.11245321    -0.13900
C565        C  0.24474832  0.34793512  0.11888369     0.08200
C566        C  0.24546945  0.32447081  0.14620379    -0.13900
H567        H  0.27986772  0.32989846  0.18985039     0.12200
H568        H  0.34879396  0.45207474  0.12830298     0.12200
H569        H  0.28222827  0.41280237  0.09190390     0.12200
H570        H  0.21544366  0.28985302  0.15211595     0.12200
C571        C  0.35363982  0.30122282  0.16730086    -0.13900
C572        C  0.40342389  0.32869523  0.16240413     0.08200
C573        C  0.42374974  0.31770900  0.13716791    -0.13900
C574        C  0.39498718  0.27788058  0.11873508    -0.13900
C575        C  0.34535546  0.24977046  0.12451808     0.08200
C576        C  0.32483850  0.26308391  0.14817120    -0.13900
H577        H  0.33695702  0.30811765  0.18689705     0.12200
H578        H  0.46193444  0.33802449  0.13291331     0.12200
H579        H  0.41178824  0.26751952  0.10103490     0.12200
H580        H  0.28714386  0.24139003  0.15385401     0.12200
C581        C  0.41172622  0.32086880  0.36630176    -0.13900
C582        C  0.39476180  0.31975254  0.33583644     0.08200
C583        C  0.34951824  0.28209714  0.32755376    -0.13900
C584        C  0.32261509  0.24557748  0.34883681    -0.13900
C585        C  0.34087971  0.24557300  0.37848522     0.08200
C586        C  0.38513907  0.28369794  0.38734950    -0.13900
H587        H  0.44631765  0.34947861  0.37348847     0.12200
H588        H  0.33546726  0.27998109  0.30427372     0.12200
H589        H  0.28930774  0.21539070  0.34123829     0.12200
H590        H  0.40047273  0.28315264  0.40974109     0.12200
C591        C  0.27232192  0.31834388  0.31582453    -0.13900
C592        C  0.30168221  0.36391457  0.32843354     0.08200
C593        C  0.28879145  0.37382094  0.35764056    -0.13900
C594        C  0.24563264  0.34060605  0.37228780    -0.13900
C595        C  0.21479035  0.29657734  0.35831801     0.08200
C596        C  0.22979292  0.28495831  0.33076436    -0.13900
H597        H  0.28096043  0.30893211  0.29346950     0.12200
H598        H  0.31059014  0.40805915  0.36829879     0.12200
H599        H  0.23437260  0.35080079  0.39330174     0.12200
H600        H  0.20634680  0.25200853  0.31902551     0.12200
O601        O  0.46983074  0.39205581  0.81814846    -0.75800
O602        O  0.41128002  0.35317531  0.78249959    -0.54800
C603        C  0.42938269  0.35682931  0.80975196     0.77900
O604        O  0.50717562  0.59033545  0.82549018    -0.60400
O605        O  0.57195085  0.63054111  0.79304949    -0.53500
C606        C  0.54902549  0.62602181  0.81858366     0.69900
O607        O  0.37699057  0.43865317  0.81806333    -0.75000
O608        O  0.35618655  0.38433169  0.77943467    -0.55600
C609        C  0.34908085  0.39732698  0.80613096     0.75900
O610        O  0.60785533  0.52693511  0.81479104    -0.60100
O611        O  0.62984199  0.59620559  0.78952743    -0.53300
C612        C  0.63543797  0.57188418  0.81091590     0.72500
Zr613      Zr  0.53575639  0.46095798  0.79197237     2.54700
O614        O  0.55818629  0.44581640  0.84324517    -0.80700
O615        O  0.57474737  0.41765893  0.77664704    -0.94100
Zr616      Zr  0.44928136  0.51380120  0.80060406     2.64700
O617        O  0.43809165  0.50544623  0.85735125    -0.99100
O618        O  0.39822607  0.54780686  0.79892938    -0.81100
O619        O  0.46310875  0.45446683  0.78895499    -0.84500
O620        O  0.52846192  0.52809327  0.79951767    -2.19200
O621        O  0.61360148  0.55026739  0.68305872    -0.67900
O622        O  0.63250769  0.60662764  0.72006093    -0.52500
C623        C  0.64048894  0.59251802  0.69408791     0.70900
O624        O  0.38813614  0.46165471  0.67980707    -0.60800
O625        O  0.36084718  0.39490465  0.70918749    -0.52800
C626        C  0.35854550  0.41750494  0.68534220     0.72700
O627        O  0.51145534  0.60701402  0.68817764    -0.72200
O628        O  0.57592214  0.63998934  0.72031332    -0.50900
C629        C  0.55372837  0.64033581  0.69558126     0.74100
O630        O  0.47803004  0.40479759  0.67147457    -0.67500
O631        O  0.41862448  0.36048495  0.70662965    -0.54700
C632        C  0.43809296  0.36749522  0.67942086     0.72400
Zr633      Zr  0.53929190  0.47537064  0.69973759     2.77500
O634        O  0.55500908  0.47317570  0.64393614    -0.98300
O635        O  0.58706909  0.43855586  0.70723367    -0.79100
Zr636      Zr  0.45208509  0.52826333  0.70808547     2.70100
O637        O  0.43286111  0.54879721  0.65742773    -0.80300
O638        O  0.39923336  0.55490173  0.72709883    -0.99400
Zr639      Zr  0.42431061  0.41471208  0.74574404     2.21500
Zr640      Zr  0.56474988  0.57584834  0.75397084     2.11100
O641        O  0.53091358  0.54211175  0.70448639    -2.48100
O642        O  0.46549708  0.46680564  0.70674814    -0.80100
O643        O  0.57695693  0.51061389  0.74810325    -0.72300
O644        O  0.41110021  0.47910215  0.75209695    -2.33300
O645        O  0.50157649  0.42314333  0.74352511    -2.29500
O646        O  0.48665581  0.56557369  0.75650679    -0.74100
H647        H  0.54376333  0.54296081  0.81891234     0.77900
H648        H  0.37725131  0.46892685  0.75232866     0.79000
H649        H  0.54716379  0.56151443  0.68643422     0.81200
H650        H  0.49981818  0.39312236  0.74125705     0.78800
H651        H  0.36599110  0.52118523  0.80445578     0.41900
H652        H  0.41821204  0.58972208  0.72481149     0.40800
H653        H  0.45028361  0.54085594  0.64184005     0.40500
H654        H  0.55853414  0.50260636  0.63496245     0.38400
H655        H  0.62049965  0.46527873  0.70686736     0.41600
H656        H  0.56493814  0.39286285  0.79303019     0.36400
H657        H  0.54243210  0.45621080  0.85849674     0.42500
H658        H  0.47007107  0.51503764  0.86572884     0.38900
H659        H  0.58752064  0.47777119  0.64286075     0.43800
H660        H  0.60907098  0.43989583  0.78056406     0.42500
H661        H  0.43233855  0.53106661  0.86359990     0.42700
H662        H  0.37429299  0.54459613  0.71085630     0.43000
O663        O  0.07569378  0.46029947  0.81513942    -0.75800
O664        O  0.05173369  0.40758089  0.77524554    -0.54800
C665        C  0.06768436  0.42098579  0.80294482     0.77900
O666        O  0.91442362  0.51535883  0.81743478    -0.60400
O667        O  0.95335318  0.58433646  0.78979092    -0.53500
C668        C  0.92670712  0.55883763  0.81271817     0.69900
O669        O  0.93102889  0.39016505  0.81490307    -0.75000
O670        O  0.95933567  0.36054478  0.77826293    -0.55600
C671        C  0.94069642  0.35905394  0.80520066     0.75900
O672        O  0.08426507  0.60426523  0.81958022    -0.60100
O673        O  0.05033753  0.63432404  0.78756052    -0.53300
C674        C  0.07296520  0.63560116  0.81229833     0.72500
Zr675      Zr  0.07259710  0.53005036  0.79570021     2.54700
O676        O  0.08686406  0.53306843  0.85189698    -0.80700
O677        O  0.15900622  0.57047955  0.78929667    -0.94100
Zr678      Zr  0.92906009  0.45701828  0.79199922     2.64700
O679        O  0.89442161  0.42987421  0.84426344    -0.99100
O680        O  0.84573485  0.41037622  0.77660436    -0.81100
O681        O  0.00149464  0.46304172  0.78632299    -0.84500
O682        O  0.00024545  0.53101007  0.79760568    -2.19200
O683        O  0.08509915  0.61739617  0.68393399    -0.67900
O684        O  0.04831066  0.64161347  0.71824693    -0.52500
C685        C  0.07200342  0.64645121  0.69294115     0.70900
O686        O  0.92746537  0.39973268  0.67270537    -0.60800
O687        O  0.95770611  0.36698014  0.70544572    -0.52800
C688        C  0.93687743  0.36727553  0.68015256     0.72700
O689        O  0.92035294  0.53421466  0.68323929    -0.72200
O690        O  0.95505322  0.59281292  0.71940292    -0.50900
C691        C  0.93203750  0.57545022  0.69402393     0.74100
O692        O  0.08385837  0.48366374  0.67252271    -0.67500
O693        O  0.05025045  0.41627388  0.70190004    -0.54700
C694        C  0.07288519  0.44067439  0.67746508     0.72400
Zr695      Zr  0.07799417  0.54329937  0.70293709     2.77500
O696        O  0.11955520  0.56779097  0.65238060    -0.98300
O697        O  0.16034634  0.58319019  0.72068675    -0.79100
Zr698      Zr  0.93369525  0.46900542  0.69941786     2.70100
O699        O  0.91869694  0.46844668  0.64346056    -0.80300
O700        O  0.84749972  0.42151328  0.70689301    -0.99400
Zr701      Zr  0.00448114  0.42637622  0.74261307     2.21500
Zr702      Zr  0.00218482  0.57377663  0.75178627     2.11100
O703        O  0.00509385  0.54305285  0.70186116    -2.48100
O704        O  0.00618531  0.47405021  0.70378722    -0.80100
O705        O  0.07743254  0.57772909  0.75172539    -0.72300
O706        O  0.92877657  0.42130818  0.74339764    -2.33300
O707        O  0.07919692  0.49844643  0.74667575    -2.29500
O708        O  0.92791968  0.50128666  0.74811533    -0.74100
H709        H  0.99931214  0.54541175  0.81705076     0.77900
H710        H  0.90270203  0.38922245  0.74195958     0.79000
H711        H  0.00443308  0.56090487  0.68409737     0.81200
H712        H  0.10602289  0.49351110  0.74592243     0.78800
H713        H  0.83596651  0.37758290  0.78273329     0.41900
H714        H  0.83432734  0.43055263  0.68907334     0.40800
H715        H  0.95078536  0.48821759  0.63385980     0.40500
H716        H  0.09773652  0.57162482  0.63821938     0.38400
H717        H  0.16994480  0.61694171  0.72165800     0.41600
H718        H  0.16871410  0.55196956  0.80245008     0.36400
H719        H  0.05469317  0.51896641  0.86161053     0.42500
H720        H  0.91560008  0.45564988  0.85859016     0.38900
H721        H  0.14671722  0.60028317  0.65560814     0.43800
H722        H  0.17093246  0.60056130  0.80065986     0.42500
H723        H  0.86419580  0.43024592  0.84416441     0.42700
H724        H  0.83943667  0.38885362  0.70216151     0.43000
O725        O  0.39110063  0.93381122  0.82211843    -0.75800
O726        O  0.35748630  0.96109447  0.78768515    -0.54800
C727        C  0.35855820  0.94310994  0.81418840     0.77900
O728        O  0.60723209  0.08369724  0.81514360    -0.60400
O729        O  0.63363061  0.04440313  0.78515992    -0.53500
C730        C  0.63706225  0.06991774  0.80888996     0.69900
O731        O  0.46562734  0.07625534  0.82077369    -0.75000
O732        O  0.40397146  0.05114700  0.78680375    -0.55600
C733        C  0.42399659  0.06867554  0.81312249     0.75900
O734        O  0.52105761  0.91958997  0.81473144    -0.60100
O735        O  0.58432293  0.95188247  0.78073187    -0.53300
C736        C  0.56329315  0.92934090  0.80599627     0.72500
Zr737      Zr  0.45724255  0.93261145  0.79491701     2.54700
O738        O  0.44532069  0.90395526  0.84895126    -0.80700
O739        O  0.40572120  0.84907521  0.78363996    -0.94100
Zr740      Zr  0.53210418  0.07423760  0.79457818     2.64700
O741        O  0.54453824  0.10072667  0.84890172    -0.99100
O742        O  0.57348714  0.15876286  0.78372980    -0.81100
O743        O  0.46252012  0.00404773  0.78995321    -0.84500
O744        O  0.53290142  0.00271164  0.79552421    -2.19200
O745        O  0.51746711  0.91972172  0.67997282    -0.67900
O746        O  0.58582513  0.95787351  0.70836199    -0.52500
C747        C  0.56132950  0.93211730  0.68518269     0.70900
O748        O  0.46354561  0.07527146  0.67631929    -0.60800
O749        O  0.40321719  0.05049433  0.71210007    -0.52800
C750        C  0.42199936  0.06730772  0.68511395     0.72700
O751        O  0.60681135  0.08585716  0.68008416    -0.72200
O752        O  0.63595696  0.05211572  0.71303884    -0.50900
C753        C  0.63836925  0.07502225  0.68801431     0.74100
O754        O  0.38767880  0.93250876  0.67843169    -0.67500
O755        O  0.35538468  0.96149429  0.71258471    -0.54700
C756        C  0.35549012  0.94222086  0.68648487     0.72400
Zr757      Zr  0.45597904  0.93339256  0.70271045     2.77500
O758        O  0.43688730  0.90701882  0.64857417    -0.98300
O759        O  0.40829043  0.84944211  0.71518110    -0.79100
Zr760      Zr  0.53124075  0.07525412  0.70208583     2.70100
O761        O  0.54947616  0.10702390  0.64876393    -0.80300
O762        O  0.56794966  0.15857363  0.71473609    -0.99400
Zr763      Zr  0.41881132  0.00540500  0.74942706     2.21500
Zr764      Zr  0.57072018  0.00238021  0.74733002     2.11100
O765        O  0.53181928  0.00361273  0.70024899    -2.48100
O766        O  0.46176594  0.00487386  0.70790188    -0.80100
O767        O  0.49596700  0.92937527  0.74817578    -0.72300
O768        O  0.49271055  0.07909375  0.74887872    -2.33300
O769        O  0.41372228  0.93040053  0.74936380    -2.29500
O770        O  0.57391008  0.07669213  0.74778981    -0.74100
H771        H  0.54904918  0.00179287  0.81416143     0.77900
H772        H  0.48793347  0.10586271  0.74912980     0.79000
H773        H  0.54795071  0.00361438  0.68119690     0.81200
H774        H  0.38147272  0.90482352  0.74963150     0.78800
H775        H  0.55432241  0.16979643  0.79496400     0.41900
H776        H  0.60117116  0.17294401  0.70677973     0.40800
H777        H  0.53758888  0.07895894  0.63520720     0.40500
H778        H  0.46584953  0.92869672  0.63617571     0.38400
H779        H  0.43103321  0.83800781  0.71342750     0.41600
H780        H  0.37330435  0.84198632  0.78974050     0.36400
H781        H  0.46520038  0.93253750  0.86156271     0.42500
H782        H  0.54821674  0.07685668  0.86076817     0.38900
H783        H  0.43528475  0.87616800  0.64808181     0.43800
H784        H  0.41400520  0.83271333  0.79974223     0.42500
H785        H  0.57661805  0.12964121  0.84912753     0.42700
H786        H  0.55266305  0.17053349  0.70032722     0.43000
C787        C  0.08866184  0.20557409  0.86473015     0.79700
N788        N  0.13689920  0.22259365  0.86283037    -0.78600
C789        C  0.16796819  0.27038369  0.86009893     0.82100
N790        N  0.15078827  0.29992796  0.85858908    -0.78600
C791        C  0.10363690  0.28374824  0.85930776     0.82200
N792        N  0.07252126  0.23647332  0.86237656    -0.80300
C793        C  0.12660946  0.27188481  0.58071076     0.79700
N794        N  0.17061565  0.28526484  0.59243635    -0.78600
C795        C  0.19708130  0.32863828  0.60552664     0.82100
N796        N  0.17882265  0.35723079  0.60805658    -0.78600
C797        C  0.13457032  0.34357148  0.59773107     0.82200
N798        N  0.10835021  0.30071630  0.58397655    -0.80300
C799        C  0.12811432  0.86100699  0.57683109     0.79700
N800        N  0.17424943  0.89048563  0.58601317    -0.78600
C801        C  0.19381335  0.87605025  0.60830660     0.82100
N802        N  0.16732664  0.83311604  0.62161712    -0.78600
C803        C  0.12177501  0.80378015  0.61308617     0.82200
N804        N  0.10154156  0.81749067  0.59069207    -0.80300
C805        C  0.87630787  0.13017813  0.60156336     0.79700
N806        N  0.90057900  0.17822483  0.60267105    -0.78600
C807        C  0.87690706  0.20178487  0.60755902     0.82100
N808        N  0.82913306  0.17706633  0.61181715    -0.78600
C809        C  0.80447595  0.12938110  0.61200532     0.82200
N810        N  0.82818740  0.10563728  0.60728189    -0.80300
C811        C  0.86347930  0.13507234  0.91664728     0.79700
N812        N  0.81701985  0.11079233  0.90689386    -0.78600
C813        C  0.80060491  0.13181349  0.88709804     0.82100
N814        N  0.83077190  0.17591779  0.87648987    -0.78600
C815        C  0.87695280  0.19978648  0.88506323     0.82200
N816        N  0.89380896  0.17952817  0.90514194    -0.80300
C817        C  0.27033330  0.13806417  0.92437564     0.79700
N818        N  0.28958092  0.18347866  0.91367856    -0.78600
C819        C  0.32875637  0.20241889  0.89444260     0.82100
N820        N  0.34732215  0.17592810  0.88535046    -0.78600
C821        C  0.32804595  0.13079394  0.89499663     0.82200
N822        N  0.28909523  0.11146260  0.91431754    -0.80300
C823        C  0.11215036  0.86695555  0.89358521     0.79700
N824        N  0.09211033  0.81946672  0.88933711    -0.78600
C825        C  0.12037378  0.80071032  0.88385092     0.82100
N826        N  0.16815158  0.82960899  0.88224249    -0.78600
C827        C  0.18855018  0.87678090  0.88529640     0.82200
N828        N  0.16049145  0.89569398  0.89055382    -0.80300
C829        C  0.24734788  0.13228997  0.60105077     0.79700
N830        N  0.26777807  0.10561954  0.60673299    -0.78600
C831        C  0.31564042  0.12702108  0.61208694     0.82100
N832        N  0.34236855  0.17462871  0.61254124    -0.78600
C833        C  0.32272597  0.20169171  0.60832698     0.82200
N834        N  0.27487564  0.18040418  0.60275072    -0.80300
O835        O  0.01611657  0.03896519  0.89923080    -0.87000
O836        O  0.05162317  0.10408780  0.57408085    -0.87200
O837        O  0.98769852  0.11958146  0.96833697    -0.88900
O838        O  0.12379147  0.12107714  0.96949722    -0.87600
O839        O  0.14306055  0.06434765  0.97926203    -0.87200
O840        O  0.90958008  0.06180402  0.97661886    -0.88600
O841        O  0.06840744  0.14410460  0.52686479    -0.87100
O842        O  0.04841916  0.10674796  0.92863804    -0.86700
Zr843      Zr  0.03799399  0.08645964  0.98301246     2.84300
O844        O  0.06095443  0.05236781  0.52326852    -1.08600
O845        O  0.96690682  0.02766749  0.96026515    -1.09400
C846        C  0.03910645  0.08496536  0.90241026     1.06100
C847        C  0.07054571  0.14220443  0.55714334     1.06000
C848        C  0.94210656  0.10275770  0.96629477     1.09000
C849        C  0.15304870  0.10527309  0.96885129     1.06800
H850        H  0.97558792  0.07883835  0.53198096     0.32300
O851        O  0.97968304  0.05368896  0.52406397    -1.29600
H852        H  0.07198744  0.04025843  0.94363269     0.32000
O853        O  0.04802144  0.02736933  0.96008023    -1.31300
O854        O  0.96595772  0.95016745  0.60143098    -0.87000
O855        O  0.93131527  0.88400434  0.92711313    -0.88500
O856        O  0.88823120  0.02323692  0.54736522    -0.87100
O857        O  0.12356885  0.02634586  0.54505516    -0.87200
O858        O  0.09172973  0.96561805  0.95332236    -0.86900
O859        O  0.85817395  0.96495511  0.95349367    -0.86700
O860        O  0.86046182  0.86930682  0.53489479    -0.87100
O861        O  0.99563683  0.86877950  0.53061517    -0.86500
O862        O  0.84209873  0.92700708  0.52658139    -0.87600
O863        O  0.07288961  0.92635417  0.51976180    -0.86700
O864        O  0.94452316  0.03934778  0.58528036    -0.87100
O865        O  0.89882165  0.95095301  0.91477864    -0.86900
O866        O  0.03530077  0.94874202  0.91538380    -0.86500
O867        O  0.08406658  0.04195344  0.58371477    -0.86900
O868        O  0.93481619  0.88233610  0.57210793    -0.87200
O869        O  0.91397596  0.84407223  0.47513774    -0.88600
Zr870      Zr  0.00341760  0.01953227  0.56383639     2.83100
Zr871      Zr  0.97714571  0.96911636  0.93678660     2.83500
Zr872      Zr  0.90907952  0.99418953  0.50154398     2.84100
Zr873      Zr  0.07174263  0.99453442  0.50004437     2.83400
Zr874      Zr  0.94441107  0.90201872  0.51760228     2.84200
O875        O  0.00194487  0.93605628  0.97661500    -1.09100
O876        O  0.93365146  0.96084656  0.54006296    -1.08600
C877        C  0.94397134  0.90426602  0.59828697     1.06000
C878        C  0.91338223  0.84581601  0.94398980     1.08700
C879        C  0.90670856  0.03840891  0.57452862     1.06200
C880        C  0.12132089  0.04225619  0.57217288     1.06600
C881        C  0.07332775  0.95026342  0.92614103     1.06200
C882        C  0.86161477  0.95126032  0.92581812     1.05700
C883        C  0.83258395  0.88654388  0.53746987     1.06100
C884        C  0.04139828  0.88551864  0.53073673     1.05600
H885        H  0.88875175  0.90970038  0.96950636     0.32300
O886        O  0.91890906  0.93470339  0.97731479    -1.30200
H887        H  0.02606122  0.94907900  0.55691464     0.32300
O888        O  0.01505892  0.96157256  0.54053804    -1.31600
C889        C  0.71800096  0.85790533  0.58365069     0.79700
N890        N  0.69684471  0.88351045  0.59085889    -0.78600
C891        C  0.65387899  0.86244937  0.60608629     0.82100
N892        N  0.63329060  0.81676140  0.61463980    -0.78600
C893        C  0.65463028  0.79163991  0.60900557     0.82200
N894        N  0.69754999  0.81217363  0.59377663    -0.80300
C895        C  0.73782344  0.86550353  0.89217913     0.79700
N896        N  0.71776404  0.89239951  0.88591238    -0.78600
C897        C  0.66984659  0.87103781  0.88057457     0.82100
N898        N  0.64288658  0.82350535  0.88077934    -0.78600
C899        C  0.66217841  0.79628741  0.88549121     0.82200
N900        N  0.70997887  0.81740060  0.89099906    -0.80300
C901        C  0.89949087  0.78529395  0.63577002     0.79700
N902        N  0.91638545  0.75498746  0.63805797    -0.78600
C903        C  0.88576769  0.70759190  0.64122688     0.82100
N904        N  0.83850400  0.69084260  0.64181410    -0.78600
C905        C  0.82070607  0.71981516  0.64005998     0.82200
N906        N  0.85118282  0.76761243  0.63746008    -0.80300
C907        C  0.86519630  0.71816819  0.91727637     0.79700
N908        N  0.88690026  0.69289191  0.91122253    -0.78600
C909        C  0.86271772  0.65094204  0.89600225     0.82100
N910        N  0.81750003  0.63491001  0.88681305    -0.78600
C911        C  0.79603034  0.66012463  0.89183411     0.82200
N912        N  0.82012708  0.70245104  0.90655776    -0.80300
C913        C  0.93382811  0.83506879  0.62599297    -0.17000
C914        C  0.92530152  0.87125058  0.62563461    -0.32200
H915        H  0.96505926  0.83999201  0.61314212     0.12000
H916        H  0.89532197  0.86853828  0.63876950     0.12600
C917        C  0.76344099  0.88106182  0.56558060    -0.17000
C918        C  0.78685733  0.85937210  0.55534180    -0.32200
H919        H  0.77803485  0.91829292  0.56024971     0.12000
H920        H  0.77351462  0.82253281  0.56118970     0.12600
C921        C  0.81808123  0.93378601  0.90643975    -0.17000
C922        C  0.78922980  0.88729597  0.90084542    -0.32200
H923        H  0.80411842  0.95726094  0.90340428     0.12000
H924        H  0.80217408  0.86348449  0.90622285     0.12600
C925        C  0.88775253  0.80075263  0.92689316    -0.17000
C926        C  0.89119972  0.76301663  0.93464166    -0.32200
H927        H  0.86727696  0.79928031  0.90642073     0.12000
H928        H  0.91539121  0.76584018  0.95310712     0.12600
C929        C  0.16617455  0.06266569  0.59041550    -0.17000
C930        C  0.19574354  0.10985777  0.59267892    -0.32200
H931        H  0.17980552  0.03943765  0.59572107     0.12000
H932        H  0.18282122  0.13304780  0.58547005     0.12600
C933        C  0.08130031  0.88656165  0.90221871    -0.17000
C934        C  0.09903997  0.93306917  0.90675299    -0.32200
H935        H  0.04409130  0.86175648  0.90812888     0.12000
H936        H  0.13686584  0.95762762  0.90264509     0.12600
C937        C  0.22720363  0.11531813  0.94495018    -0.17000
C938        C  0.20041978  0.13448257  0.95294848    -0.32200
H939        H  0.21536140  0.07926825  0.95220702     0.12000
H940        H  0.21098598  0.16994370  0.94503243     0.12600
C941        C  0.92570431  0.13126272  0.94903164    -0.17000
C942        C  0.88059044  0.11121719  0.93804359    -0.32200
H943        H  0.95188029  0.16755904  0.94273957     0.12000
H944        H  0.85502564  0.07451343  0.94382237     0.12600
C945        C  0.88324956  0.05881371  0.59308567    -0.17000
C946        C  0.90329271  0.10603188  0.59434245    -0.32200
H947        H  0.84549280  0.03624659  0.59857236     0.12000
H948        H  0.94031328  0.12821855  0.58680707     0.12600
C949        C  0.10717418  0.87911078  0.55387333    -0.17000
C950        C  0.06006247  0.85830240  0.54722616    -0.32200
H951        H  0.13185805  0.91399311  0.54427231     0.12000
H952        H  0.03481024  0.82402755  0.55738300     0.12600
C953        C  0.09817692  0.22634073  0.56466771    -0.17000
C954        C  0.09795788  0.18724517  0.57394287    -0.32200
H955        H  0.07526689  0.22442993  0.54557740     0.12000
H956        H  0.11722875  0.18796860  0.59488519     0.12600
C957        C  0.05340915  0.15612783  0.87498770    -0.17000
C958        C  0.05950357  0.11834848  0.87518113    -0.32200
H959        H  0.02288137  0.15260641  0.88800843     0.12000
H960        H  0.08843447  0.11927968  0.86179203     0.12600
C961        C  0.63603367  0.93996042  0.66135870    -0.13900
C962        C  0.58582107  0.91764203  0.66210532     0.08200
C963        C  0.55949430  0.88245900  0.63992208    -0.13900
C964        C  0.58260179  0.86788027  0.61901371    -0.13900
C965        C  0.63257064  0.88879389  0.61931153     0.08200
C966        C  0.65922057  0.92604719  0.63993938    -0.13900
H967        H  0.65740817  0.96727804  0.67797182     0.12200
H968        H  0.52087139  0.86478016  0.63956863     0.12200
H969        H  0.56121156  0.83825098  0.60380295     0.12200
H970        H  0.69760252  0.94172058  0.64129981     0.12200
C971        C  0.68690152  0.11324520  0.63880967    -0.13900
C972        C  0.67900249  0.08667870  0.66644018     0.08200
C973        C  0.70913068  0.06856782  0.67277326    -0.13900
C974        C  0.74677220  0.07766250  0.65256589    -0.13900
C975        C  0.75629726  0.10640627  0.62603595     0.08200
C976        C  0.72562400  0.12353859  0.61901222    -0.13900
H977        H  0.66415935  0.12725832  0.63300353     0.12200
H978        H  0.70433062  0.04795336  0.69380396     0.12200
H979        H  0.77072379  0.06535245  0.65908323     0.12200
H980        H  0.73307061  0.14679684  0.59899226     0.12200
C981        C  0.68711489  0.11631338  0.85467483    -0.13900
C982        C  0.67649674  0.08234414  0.83139587     0.08200
C983        C  0.70304289  0.05938196  0.83051340    -0.13900
C984        C  0.74039110  0.07137994  0.85158950    -0.13900
C985        C  0.75249316  0.10723464  0.87353662     0.08200
C986        C  0.72508661  0.12903370  0.87518726    -0.13900
H987        H  0.66735215  0.13452503  0.85624910     0.12200
H988        H  0.69596706  0.03319124  0.81289142     0.12200
H989        H  0.76208686  0.05527707  0.84913344     0.12200
H990        H  0.73479879  0.15783944  0.89130565     0.12200
C991        C  0.57200189  0.89157173  0.85512987    -0.13900
C992        C  0.59150577  0.91692349  0.82704883     0.08200
C993        C  0.63992626  0.93332940  0.81998199    -0.13900
C994        C  0.66779890  0.92376723  0.84001229    -0.13900
C995        C  0.64748843  0.89614013  0.86702308     0.08200
C996        C  0.59960202  0.88085427  0.87473184    -0.13900
H997        H  0.53510585  0.87881444  0.86149082     0.12200
H998        H  0.65626455  0.95283239  0.79851220     0.12200
H999        H  0.70401900  0.93455225  0.83297536     0.12200
H1000       H  0.58281295  0.85834493  0.89508748     0.12200
C1001       C  0.31656790  0.06995630  0.64979592    -0.13900
C1002       C  0.33807299  0.10118509  0.62444365     0.08200
C1003       C  0.38631443  0.11756291  0.61716078    -0.13900
C1004       C  0.41335280  0.10513676  0.63600699    -0.13900
C1005       C  0.39290630  0.07702196  0.66295676     0.08200
C1006       C  0.34389506  0.05866464  0.66914714    -0.13900
H1007       H  0.27985144  0.05777359  0.65637780     0.12200
H1008       H  0.40386662  0.14240792  0.59797458     0.12200
H1009       H  0.45081643  0.11962591  0.63044832     0.12200
H1010       H  0.32695950  0.03701581  0.68975693     0.12200
C1011       C  0.31677811  0.91351047  0.63398203    -0.13900
C1012       C  0.31672087  0.93147989  0.66388896     0.08200
C1013       C  0.27936570  0.93934580  0.67182676    -0.13900
C1014       C  0.24206705  0.92764714  0.65095666    -0.13900
C1015       C  0.24074873  0.90694585  0.62203168     0.08200
C1016       C  0.27887996  0.90093564  0.61338503    -0.13900
H1017       H  0.34505160  0.90722119  0.62696382     0.12200
H1018       H  0.27783090  0.95273829  0.69468313     0.12200
H1019       H  0.21200152  0.93077366  0.65858489     0.12200
H1020       H  0.27756459  0.88324283  0.59172104     0.12200
C1021       C  0.27084091  0.89084204  0.88221950    -0.13900
C1022       C  0.23844081  0.90563969  0.87479139     0.08200
C1023       C  0.24914294  0.93759761  0.84997102    -0.13900
C1024       C  0.28893370  0.95058730  0.83083789    -0.08800
C1025       C  0.31963742  0.93307171  0.83674325     0.08200
C1026       C  0.31143562  0.90484340  0.86353168    -0.13900
H1027       H  0.26275005  0.86552184  0.90104696     0.12200
H1028       H  0.22418646  0.94860433  0.84333887     0.12200
H1029       H  0.29419441  0.97248457  0.81043856     0.12200
H1030       H  0.33459922  0.89116019  0.86891386     0.12200
C1031       C  0.35079022  0.07123349  0.82902050    -0.13900
C1032       C  0.39662987  0.07958094  0.83627960     0.08200
C1033       C  0.41552029  0.09781137  0.86599024    -0.13900
C1034       C  0.39039048  0.10983863  0.88712205    -0.13900
C1035       C  0.34543788  0.10279232  0.87931510     0.08200
C1036       C  0.32535512  0.08233102  0.85042471    -0.13900
H1037       H  0.33509349  0.05756634  0.80634996     0.12200
H1038       H  0.45053393  0.10451075  0.87248256     0.12200
H1039       H  0.40728185  0.12727191  0.90879713     0.12200
H1040       H  0.29157888  0.07839885  0.84340448     0.12200
C1041       C  0.08660479  0.68240934  0.63915907    -0.13900
C1042       C  0.08135904  0.68590669  0.67167960     0.08200
C1043       C  0.08130509  0.72572408  0.68325701    -0.13900
C1044       C  0.08848472  0.76217023  0.66293202    -0.13900
C1045       C  0.09573283  0.75948244  0.63070017     0.08200
C1046       C  0.09389413  0.71904875  0.61882889    -0.13900
H1047       H  0.08579691  0.65166252  0.62949000     0.12200
H1048       H  0.07682284  0.72918448  0.70812740     0.12200
H1049       H  0.09164078  0.79398965  0.67264157     0.12200
H1050       H  0.10131280  0.71724237  0.59421760     0.12200
C1051       C  0.88130655  0.59217718  0.65755468    -0.13900
C1052       C  0.92210213  0.60795157  0.67593018     0.08200
C1053       C  0.95409431  0.65697653  0.67861132    -0.13900
C1054       C  0.94460907  0.68967751  0.66474011    -0.13900
C1055       C  0.90207677  0.67413237  0.64848167     0.08200
C1056       C  0.87109174  0.62506507  0.64422294    -0.13900
H1057       H  0.85621136  0.55473932  0.65496485     0.12200
H1058       H  0.98587978  0.67020099  0.69261752     0.12200
H1059       H  0.96889862  0.72697124  0.66871535     0.12200
H1060       H  0.83785750  0.61205947  0.63172744     0.12200
C1061       C  0.88156643  0.55722605  0.86153375    -0.13900
C1062       C  0.91195440  0.58233739  0.83608181     0.08200
C1063       C  0.93046330  0.63132849  0.83385858    -0.13900
C1064       C  0.91923038  0.65474446  0.85636764    -0.13900
C1065       C  0.88739903  0.62944294  0.88088100     0.08200
C1066       C  0.86864081  0.58049885  0.88339659    -0.13900
H1067       H  0.86660883  0.51947794  0.86399221     0.12200
H1068       H  0.95265877  0.65160171  0.81416932     0.12200
H1069       H  0.93219545  0.69205362  0.85307030     0.12200
H1070       H  0.84240501  0.56006654  0.90144801     0.12200
C1071       C  0.11599984  0.68885479  0.85839905    -0.13900
C1072       C  0.08306831  0.67491723  0.83387775     0.08200
C1073       C  0.05795903  0.69902407  0.82966853    -0.13900
C1074       C  0.06602302  0.73650126  0.84873527    -0.13900
C1075       C  0.10103869  0.75247994  0.87178596     0.08200
C1076       C  0.12551469  0.72792782  0.87685888    -0.13900
H1077       H  0.13576837  0.67105369  0.86236929     0.12200
H1078       H  0.03287235  0.69000107  0.81076726     0.12200
H1079       H  0.04771393  0.75547403  0.84360336     0.12200
H1080       H  0.15352801  0.74036421  0.89417895     0.12200
C1081       C  0.94066627  0.29616749  0.66534702    -0.13900
C1082       C  0.92479436  0.32775946  0.65840891     0.08200
C1083       C  0.89823935  0.32075353  0.63101029    -0.13900
C1084       C  0.88593266  0.28151199  0.61202134    -0.13900
C1085       C  0.90195776  0.25021014  0.61940197     0.08200
C1086       C  0.93101408  0.25910430  0.64549386    -0.13900
H1087       H  0.95957078  0.29903305  0.68679561     0.12200
H1088       H  0.88518573  0.34416109  0.62509344     0.12200
H1089       H  0.86200285  0.27421533  0.59251929     0.12200
H1090       H  0.94214383  0.23448745  0.65243950     0.12200
C1091       C  0.12185984  0.44208602  0.63076879    -0.13900
C1092       C  0.08572283  0.41670483  0.65330275     0.08200
C1093       C  0.06167188  0.36716278  0.65308439    -0.13900
C1094       C  0.07336825  0.34324477  0.63135407    -0.13900
C1095       C  0.11167521  0.36841656  0.61054136     0.08200
C1096       C  0.13554386  0.41806347  0.61000912    -0.13900
H1097       H  0.14125944  0.48034058  0.63039874     0.12200
H1098       H  0.03514578  0.34679051  0.67072845     0.12200
H1099       H  0.05565790  0.30508290  0.63305408     0.12200
H1100       H  0.16622436  0.43814492  0.59470320     0.12200
C1101       C  0.04516915  0.33802887  0.81450997    -0.13900
C1102       C  0.07406060  0.38637984  0.82155130     0.08200
C1103       C  0.10868047  0.39975148  0.84491247    -0.13900
C1104       C  0.11615675  0.36552414  0.85922779    -0.13900
C1105       C  0.08796274  0.31736384  0.85120900     0.08200
C1106       C  0.05116362  0.30386697  0.82967069    -0.13900
H1107       H  0.01871042  0.32656788  0.79626208     0.12200
H1108       H  0.13154415  0.43662590  0.85077412     0.12200
H1109       H  0.14533026  0.37686960  0.87555625     0.12200
H1110       H  0.02962679  0.26736986  0.82252519     0.12200
C1111       C  0.92614631  0.27774566  0.81546072    -0.13900
C1112       C  0.93073774  0.31977408  0.82687057     0.08200
C1113       C  0.92604658  0.32415112  0.85936526    -0.13900
C1114       C  0.91432162  0.28626942  0.87977188    -0.13900
C1115       C  0.90780461  0.24378223  0.86802537     0.08200
C1116       C  0.91518105  0.24028210  0.83592460    -0.13900
H1117       H  0.92939316  0.27320827  0.79058410     0.12200
H1118       H  0.92985351  0.35631434  0.86889138     0.12200
H1119       H  0.90692697  0.28894424  0.90425649     0.12200
H1120       H  0.90846411  0.20704622  0.82630627     0.12200
C1121       C  0.55388521  0.68232351  0.86045554    -0.13900
C1122       C  0.57569653  0.66378946  0.84169641     0.08200
C1123       C  0.62563001  0.68407455  0.84314155    -0.13900
C1124       C  0.65379145  0.72431157  0.86084153    -0.13900
C1125       C  0.63265463  0.74592782  0.87697887     0.08200
C1126       C  0.58225405  0.72342301  0.87778107    -0.13900
H1127       H  0.51553193  0.66717161  0.85997811     0.12200
H1128       H  0.64323512  0.67009595  0.82914005     0.12200
H1129       H  0.69230064  0.74081890  0.85944256     0.12200
H1130       H  0.56498847  0.73948571  0.89006742     0.12200
C1131       C  0.67573103  0.57429828  0.86123652    -0.13900
C1132       C  0.67479311  0.59721931  0.83354266     0.08200
C1133       C  0.71097388  0.64456240  0.82833615    -0.13900
C1134       C  0.74829228  0.66764220  0.84971983    -0.13900
C1135       C  0.75023236  0.64356193  0.87637700     0.08200
C1136       C  0.71327405  0.59713051  0.88226420    -0.13900
H1137       H  0.64814708  0.53815066  0.86629569     0.12200
H1138       H  0.71127417  0.66328361  0.80727827     0.12200
H1139       H  0.77744588  0.70293692  0.84422799     0.12200
H1140       H  0.71494573  0.57760848  0.90228881     0.12200
C1141       C  0.73829107  0.65368368  0.63186325    -0.13900
C1142       C  0.76909910  0.69727475  0.64630483     0.08200
C1143       C  0.75424295  0.70830129  0.67413057    -0.13900
C1144       C  0.71203034  0.67444182  0.68902785    -0.13900
C1145       C  0.68311122  0.62895249  0.67616250     0.08200
C1146       C  0.69561168  0.61984098  0.64658963    -0.13900
H1147       H  0.74952888  0.64410454  0.61056377     0.12200
H1148       H  0.77773300  0.74096636  0.68615842     0.12200
H1149       H  0.70347690  0.68336218  0.71159531     0.12200
H1150       H  0.67384804  0.58582984  0.63563624     0.12200
C1151       C  0.62986111  0.71074315  0.67620710    -0.13900
C1152       C  0.58068502  0.67862577  0.67229308     0.08200
C1153       C  0.55917916  0.67973294  0.64404267    -0.13900
C1154       C  0.58562497  0.71352494  0.62099129    -0.13900
C1155       C  0.63416131  0.74642968  0.62547721     0.08200
C1156       C  0.65646202  0.74407068  0.65285888    -0.13900
H1157       H  0.64769946  0.71064439  0.69752669     0.12200
H1158       H  0.52165648  0.65509081  0.63994234     0.12200
H1159       H  0.56747393  0.71602095  0.60047784     0.12200
H1160       H  0.69341982  0.77042573  0.65731673     0.12200
C1161       C  0.28096038  0.34547690  0.67004124    -0.13900
C1162       C  0.31951851  0.39099291  0.66268552     0.08200
C1163       C  0.32007316  0.41138516  0.63353306    -0.13900
C1164       C  0.28174434  0.38820035  0.61310169    -0.13900
C1165       C  0.24256461  0.34384106  0.62107721     0.08200
C1166       C  0.24306192  0.32180951  0.64917379    -0.13900
H1167       H  0.27918284  0.32883968  0.69240821     0.12200
H1168       H  0.34925597  0.44613047  0.62697789     0.12200
H1169       H  0.28129263  0.40617487  0.59184239     0.12200
H1170       H  0.21240587  0.28820140  0.65615620     0.12200
C1171       C  0.35972203  0.30656176  0.65852758    -0.13900
C1172       C  0.40985256  0.33044223  0.65609122     0.08200
C1173       C  0.43071674  0.31638113  0.63296856    -0.13900
C1174       C  0.40167261  0.27656531  0.61457836    -0.13900
C1175       C  0.35143357  0.25142354  0.61835242     0.08200
C1176       C  0.33081620  0.26846364  0.63937350    -0.13900
H1177       H  0.34276899  0.31592676  0.67656134     0.12200
H1178       H  0.46921076  0.33396467  0.63062520     0.12200
H1179       H  0.41853010  0.26356973  0.59883351     0.12200
H1180       H  0.29254746  0.24938776  0.64344300     0.12200
C1181       C  0.41924722  0.32088708  0.86346090    -0.13900
C1182       C  0.40102526  0.31928453  0.83332997     0.08200
C1183       C  0.35464920  0.28233534  0.82637731    -0.13900
C1184       C  0.32783856  0.24711603  0.84863279    -0.13900
C1185       C  0.34714541  0.24757989  0.87802950     0.08200
C1186       C  0.39276261  0.28499343  0.88544524    -0.13900
H1187       H  0.45470644  0.34890855  0.86969669     0.12200
H1188       H  0.33951808  0.27981003  0.80341505     0.12200
H1189       H  0.29356490  0.21738504  0.84196632     0.12200
H1190       H  0.40908317  0.28481219  0.90749685     0.12200
C1191       C  0.27583017  0.31623201  0.80994844    -0.13900
C1192       C  0.30596087  0.36081158  0.82367569     0.08200
C1193       C  0.29407395  0.36905605  0.85371248    -0.13900
C1194       C  0.25119483  0.33524469  0.86830455    -0.13900
C1195       C  0.21949719  0.29241576  0.85331846     0.08200
C1196       C  0.23346826  0.28232157  0.82474519    -0.13900
H1197       H  0.28378063  0.30802951  0.78694093     0.12200
H1198       H  0.31657698  0.40243118  0.86523099     0.12200
H1199       H  0.24063392  0.34431790  0.89009748     0.12200
H1200       H  0.20927483  0.25040731  0.81223011     0.12200
loop_ 
_geom_bond_atom_site_label_1 
_geom_bond_atom_site_label_2 
_geom_bond_distance 
_geom_bond_site_symmetry_2 
_ccdc_geom_bond_type 
O1          Zr13   2.431       .  S
O1            C3   1.285       .  A
O2          Zr39   2.407       .  S
O2            C3   1.282       .  A
C3          C582   1.476       .  S
O4          Zr16   2.490       .  S
O4            C6   1.295       .  A
O5          Zr40   2.386       .  S
O5            C6   1.281       .  A
C6          C522   1.478       .  S
O7          Zr16   2.496       .  S
O7            C9   1.298       .  A
O8          Zr39   2.387       .  S
O8            C9   1.279       .  A
C9          C592   1.496       .  S
O10         Zr13   2.445       .  S
O10          C12   1.288       .  A
O11         Zr40   2.414       .  S
O11          C12   1.284       .  A
C12         C532   1.482       .  S
Zr13         O14   2.436       .  S
Zr13         O15   2.435       .  S
Zr13         O19   2.272       .  S
Zr13         O20   2.363       .  S
Zr13         O43   2.376       .  S
Zr13         O45   2.380       .  S
O14          H57   0.990       .  S
O15          H56   0.990       .  S
O15          H60   0.990       .  S
Zr16         O17   2.438       .  S
Zr16         O18   2.434       .  S
Zr16         O19   2.274       .  S
Zr16         O20   2.380       .  S
Zr16         O44   2.391       .  S
Zr16         O46   2.396       .  S
O17          H58   0.990       .  S
O17          H61   0.991       .  S
O18          H51   0.990       .  S
O19         Zr39   2.250       .  S
O20         Zr40   2.386       .  S
O20          H47   0.964       .  S
O21         Zr33   2.513       .  S
O21          C23   1.301       .  A
O22         Zr40   2.381       .  S
O22          C23   1.279       .  A
C23         C545   1.494       .  S
O24         Zr36   2.444       .  S
O24          C26   1.287       .  A
O25         Zr39   2.416       .  S
O25          C26   1.283       .  A
C26         C562   1.486       .  S
O27         Zr36   2.457       .  S
O27          C29   1.290       .  A
O28         Zr40   2.413       .  S
O28          C29   1.284       .  A
C29         C552   1.483       .  S
O30         Zr33   2.486       .  S
O30          C32   1.295       .  A
O31         Zr39   2.377       .  S
O31          C32   1.278       .  A
C32         C572   1.483       .  S
Zr33         O34   2.437       .  S
Zr33         O35   2.433       .  S
Zr33         O42   2.287       .  S
Zr33         O41   2.361       .  S
Zr33         O45   2.389       .  S
Zr33         O43   2.385       .  S
O34          H54   0.990       .  S
O34          H59   0.991       .  S
O35          H55   0.990       .  S
Zr36         O37   2.436       .  S
Zr36         O38   2.433       .  S
Zr36         O42   2.277       .  S
Zr36         O41   2.369       .  S
Zr36         O46   2.385       .  S
Zr36         O44   2.383       .  S
O37          H53   0.990       .  S
O38          H52   0.990       .  S
O38          H62   0.991       .  S
Zr39         O42   2.257       .  S
Zr39         O44   2.385       .  S
Zr39         O45   2.387       .  S
Zr40         O41   2.388       .  S
Zr40         O43   2.390       .  S
Zr40         O46   2.392       .  S
O41          H49   0.961       .  S
O44          H48   0.977       .  S
O45          H50   0.965       .  S
O63         Zr75   2.479       .  S
O63          C65   1.293       .  A
O64        Zr101   2.383   1_455  S
O64          C65   1.279       .  A
C65         C502   1.483       .  S
O66         Zr78   2.466       .  S
O66          C68   1.290       .  A
O67        Zr102   2.409       .  S
O67          C68   1.284       .  A
C68         C462   1.485       .  S
O69         Zr78   2.444       .  S
O69          C71   1.287       .  A
O70        Zr101   2.410       .  S
O70          C71   1.282       .  A
C71         C512   1.479       .  S
O72         Zr75   2.496       .  S
O72          C74   1.297       .  A
O73        Zr102   2.385   1_455  S
O73          C74   1.281       .  A
C74         C472   1.488       .  S
Zr75         O76   2.436       .  S
Zr75         O77   2.433       .  S
Zr75         O81   2.283   1_455  S
Zr75         O82   2.368   1_455  S
Zr75        O105   2.388       .  S
Zr75        O107   2.393       .  S
O76         H119   0.990       .  S
O77         H118   0.990       .  S
O77         H122   0.990       .  S
Zr78         O79   2.439       .  S
Zr78         O80   2.434       .  S
Zr78         O81   2.277       .  S
Zr78         O82   2.366       .  S
Zr78        O106   2.386       .  S
Zr78        O108   2.381       .  S
O79         H120   0.990       .  S
O79         H123   0.991       .  S
O80         H113   0.990       .  S
O81        Zr101   2.255       .  S
O82        Zr102   2.383       .  S
O82         H109   0.963       .  S
O83         Zr95   2.462       .  S
O83          C85   1.290       .  A
O84        Zr102   2.413   1_455  S
O84          C85   1.284       .  A
C85         C442   1.481       .  S
O86         Zr98   2.468       .  S
O86          C88   1.291       .  A
O87        Zr101   2.385       .  S
O87          C88   1.279       .  A
C88         C482   1.482       .  S
O89         Zr98   2.487       .  S
O89          C91   1.295       .  A
O90        Zr102   2.382       .  S
O90          C91   1.280       .  A
C91         C452   1.481       .  S
O92         Zr95   2.446       .  S
O92          C94   1.287       .  A
O93        Zr101   2.407   1_455  S
O93          C94   1.283       .  A
C94         C492   1.483       .  S
Zr95         O96   2.439       .  S
Zr95         O97   2.434       .  S
Zr95        O104   2.279       .  S
Zr95        O103   2.366       .  S
Zr95        O107   2.385       .  S
Zr95        O105   2.383       .  S
O96         H116   0.990       .  S
O96         H121   0.991       .  S
O97         H117   0.990       .  S
Zr98         O99   2.435       .  S
Zr98        O100   2.433       .  S
Zr98        O104   2.282   1_655  S
Zr98        O103   2.362   1_655  S
Zr98        O108   2.389       .  S
Zr98        O106   2.392       .  S
O99         H115   0.990       .  S
O100        H114   0.990       .  S
O100        H124   0.990       .  S
Zr101       O104   2.252   1_655  S
Zr101       O106   2.386       .  S
Zr101       O107   2.387   1_655  S
Zr102       O103   2.384   1_655  S
Zr102       O105   2.388   1_655  S
Zr102       O108   2.388       .  S
O103        H111   0.963       .  S
O106        H110   0.961       .  S
O107        H112   0.967       .  S
O125       Zr137   2.462       .  S
O125        C127   1.291       .  A
O126       Zr163   2.400   1_565  S
O126        C127   1.282       .  A
C127        C425   1.486       .  S
O128       Zr140   2.476       .  S
O128        C130   1.293       .  A
O129       Zr164   2.419       .  S
O129        C130   1.286       .  A
C130        C382   1.491       .  S
O131       Zr140   2.454       .  S
O131        C133   1.290       .  A
O132       Zr163   2.407       .  S
O132        C133   1.283       .  A
C133        C432   1.486       .  S
O134       Zr137   2.477       .  S
O134        C136   1.294       .  A
O135       Zr164   2.393   1_565  S
O135        C136   1.281       .  A
C136        C392   1.484       .  S
Zr137       O138   2.435       .  S
Zr137       O139   2.433       .  S
Zr137       O143   2.280   1_565  S
Zr137       O144   2.366   1_565  S
Zr137       O167   2.382       .  S
Zr137       O169   2.391       .  S
O138        H181   0.990       .  S
O139        H180   0.990       .  S
O139        H184   0.990       .  S
Zr140       O141   2.440       .  S
Zr140       O142   2.434       .  S
Zr140       O143   2.279       .  S
Zr140       O144   2.365       .  S
Zr140       O168   2.387       .  S
Zr140       O170   2.384       .  S
O141        H182   0.990       .  S
O141        H185   0.991       .  S
O142        H175   0.990       .  S
O143       Zr163   2.258       .  S
O144       Zr164   2.387       .  S
O144        H171   0.963       .  S
O145       Zr157   2.467       .  S
O145        C147   1.291       .  A
O146       Zr164   2.413   1_565  S
O146        C147   1.285       .  A
C147        C362   1.487       .  S
O148       Zr160   2.463       .  S
O148        C150   1.291       .  A
O149       Zr163   2.400       .  S
O149        C150   1.282       .  A
C150        C405   1.485       .  S
O151       Zr160   2.482       .  S
O151        C153   1.295       .  A
O152       Zr164   2.395       .  S
O152        C153   1.282       .  A
C153        C372   1.485       .  S
O154       Zr157   2.454       .  S
O154        C156   1.289       .  A
O155       Zr163   2.413   1_565  S
O155        C156   1.284       .  A
C156        C412   1.488       .  S
Zr157       O158   2.440       .  S
Zr157       O159   2.433       .  S
Zr157       O166   2.276   1_565  S
Zr157       O165   2.364   1_565  S
Zr157       O169   2.387       .  S
Zr157       O167   2.383       .  S
O158        H178   0.990       .  S
O158        H183   0.991       .  S
O159        H179   0.990       .  S
Zr160       O161   2.435       .  S
Zr160       O162   2.433       .  S
Zr160       O166   2.278       .  S
Zr160       O165   2.366       .  S
Zr160       O170   2.387       .  S
Zr160       O168   2.390       .  S
O161        H177   0.990       .  S
O162        H176   0.990       .  S
O162        H186   0.990       .  S
Zr163       O166   2.256       .  S
Zr163       O168   2.392       .  S
Zr163       O169   2.391   1_545  S
Zr164       O165   2.389       .  S
Zr164       O167   2.393   1_545  S
Zr164       O170   2.394       .  S
O165        H173   0.964       .  S
O168        H172   0.970       .  S
O169        H174   0.954       .  S
C187        N188   1.373       .  A
C187        N192   1.365       .  A
C187        C357   1.494       .  S
N188        C189   1.373       .  A
C189        C595   1.478       .  S
C189        N190   1.350       .  A
N190        C191   1.345       .  A
C191        C505   1.475       .  S
C191        N192   1.359       .  A
C193        N194   1.365       .  A
C193        N198   1.361       .  A
C193        C353   1.474       .  S
N194        C195   1.362       .  A
C195        C565   1.465       .  S
C195        N196   1.351       .  A
N196        C197   1.349       .  A
C197        C495   1.462       .  S
C197        N198   1.358       .  A
C199        N200   1.368       .  A
C199        N204   1.368       .  A
C199        C349   1.484       .  S
N200        C201   1.358       .  A
C201        C415   1.465       .  S
C201        N202   1.344       .  A
N202        C203   1.347       .  A
C203        C445   1.461       .  S
C203        N204   1.364       .  A
C205        N206   1.362       .  A
C205        N210   1.369       .  A
C205        C346   1.488       .  S
N206        C207   1.359       .  A
C207        C485   1.466       .  S
C207        N208   1.347       .  A
N208        C209   1.350       .  A
C209        C375   1.476       .  S
C209        N210   1.367       .  A
C211        N212   1.372       .  A
C211        N216   1.367       .  A
C211        C342   1.488       .  S
N212        C213   1.364       .  A
C213        C385   1.472       .  S
C213        N214   1.343       .  A
N214        C215   1.345       .  A
C215        C515   1.457       .  S
C215        N216   1.360       .  A
C217        N218   1.363       .  A
C217        N222   1.366       .  A
C217        C337   1.474       .  S
N218        C219   1.358       .  A
C219        C585   1.453       .  S
C219        N220   1.348       .  A
N220        C221   1.345       .  A
C221        C435   1.463       .  S
C221        N222   1.358       .  A
C223        N224   1.366       .  A
C223        N228   1.367       .  A
C223        C333   1.492       .  S
N224        C225   1.364       .  A
C225        C475   1.476       .  S
C225        N226   1.349       .  A
N226        C227   1.350       .  A
C227        C422   1.471       .  S
C227        N228   1.364       .  A
C229        N230   1.367       .  A
C229        N234   1.366       .  A
C229        C330   1.495       .  S
N230        C231   1.365       .  A
C231        C402   1.472       .  S
C231        N232   1.350       .  A
N232        C233   1.348       .  A
C233        C575   1.475       .  S
C233        N234   1.365       .  A
O235       Zr271   2.532   1_445  S
O235        C246   1.311       .  A
O236       Zr270   2.451       .  S
O236        C247   1.294       .  A
O237       Zr243   2.474   1_655  S
O237        C248   1.297       .  A
O238       Zr243   2.470       .  S
O238        C249   1.296       .  A
O239       Zr873   2.407   1_545  S
O239        C249   1.287       .  A
O240       Zr872   2.424   1_545  S
O240        C248   1.289       .  A
O241       Zr843   2.446   1_554  S
O241        C247   1.295       .  A
O242       Zr243   2.374       .  S
O242        C246   1.281       .  A
Zr243       O841   2.447       .  S
Zr243       O245   2.344   1_455  S
Zr243       O253   2.352       .  S
Zr243       O844   2.330       .  S
Zr243       O851   2.333   1_455  S
O244       Zr270   2.360       .  S
O244       Zr273   2.334   1_544  S
O244       Zr843   2.333   1_554  S
O245       Zr271   2.346   1_545  S
O245       Zr872   2.328   1_545  S
C246        C358   1.489       .  S
C247        C354   1.479       .  S
C248        C341   1.492       .  S
C249        C338   1.483       .  S
H250        O251   0.966       .  S
O251       Zr270   2.370   1_655  S
O251       Zr272   2.347   1_544  S
O251       Zr843   2.340   1_654  S
H252        O253   0.966       .  S
O253       Zr271   2.346   1_445  S
O253       Zr873   2.332   1_545  S
O254       Zr270   2.537   1_665  S
O254        C277   1.312       .  A
O255       Zr271   2.449       .  S
O255        C278   1.294       .  A
O256       Zr272   2.418   1_544  S
O256        C279   1.287       .  A
O257       Zr273   2.424   1_544  S
O257        C280   1.288       .  A
O258       Zr873   2.426       .  S
O258        C281   1.288       .  A
O259       Zr872   2.425       .  S
O259        C282   1.289       .  A
O260       Zr274   2.480       .  S
O260        C283   1.298       .  A
O261       Zr274   2.481       .  S
O261        C284   1.298   1_655  A
O262       Zr272   2.423   1_554  S
O262        C283   1.289       .  A
O263       Zr273   2.422   1_554  S
O263        C284   1.289       .  A
O264       Zr270   2.494   1_655  S
O264        C279   1.303       .  A
O265       Zr271   2.488       .  S
O265        C282   1.301       .  A
O266       Zr271   2.482   1_455  S
O266        C281   1.300       .  A
O267       Zr270   2.492       .  S
O267        C280   1.302       .  A
O268       Zr274   2.376       .  S
O268        C277   1.282       .  A
O269       Zr274   2.452   1_556  S
O269        C878   1.296       .  A
Zr270       O276   2.343   1_445  S
Zr270       O288   2.347   1_545  S
Zr271       O275   2.365   1_655  S
Zr271       O286   2.367       .  S
Zr272       O840   2.425   1_565  S
Zr272       O859   2.429       .  S
Zr272       O276   2.331   1_556  S
Zr272       O845   2.331   1_565  S
Zr272       O886   2.340       .  S
Zr273       O839   2.424   1_565  S
Zr273       O858   2.424       .  S
Zr273       O288   2.337   1_556  S
Zr273       O853   2.335   1_565  S
Zr273       O875   2.338       .  S
Zr274       O276   2.344       .  S
Zr274       O288   2.350   1_655  S
Zr274       O875   2.339   1_654  S
Zr274       O886   2.345   1_554  S
O275       Zr873   2.333       .  S
O275       Zr874   2.337   1_455  S
C277        C314   1.496       .  S
C278        O869   1.296       .  A
C278        C325   1.478       .  S
C279        C345   1.479       .  S
C280        C329   1.484       .  S
C281        C334   1.481       .  S
C282        C321   1.480       .  S
C283        C318   1.496       .  S
C284        C350   1.493       .  S
H285        O286   0.965       .  S
O286       Zr872   2.340       .  S
O286       Zr874   2.343       .  S
H287        O288   0.967       .  S
C289        N290   1.368       .  A
C289        N294   1.369       .  A
C289        C317   1.487       .  S
N290        C291   1.359       .  A
C291        C365   1.465       .  S
C291        N292   1.343       .  A
N292        C293   1.346       .  A
C293        C555   1.461       .  S
C293        N294   1.365       .  A
C295        N296   1.367       .  A
C295        N300   1.367       .  A
C295        C322   1.491       .  S
N296        C297   1.363       .  A
C297        C395   1.466       .  S
C297        N298   1.348       .  A
N298        C299   1.347       .  A
C299        C525   1.479       .  S
C299        N300   1.364       .  A
C301        N302   1.367       .  A
C301        N306   1.375       .  A
C301        C313   1.496       .  S
N302        C303   1.360       .  A
C303        C455   1.474       .  S
C303        N304   1.343       .  A
N304        C305   1.348       .  A
C305        C542   1.479       .  S
C305        N306   1.374       .  A
C307        N308   1.364       .  A
C307        N312   1.365       .  A
C307        C326   1.477       .  S
N308        C309   1.360       .  A
C309        C465   1.462       .  S
C309        N310   1.347       .  A
N310        C311   1.348       .  A
C311        C535   1.463       .  S
C311        N312   1.360       .  A
C313        C314   1.359       .  D
C313        H315   1.089       .  S
C314        H316   1.085       .  S
C317        C318   1.356       .  D
C317        H319   1.087       .  S
C318        H320   1.086       .  S
C321        C322   1.349       .  D
C321        H323   1.086       .  S
C322        H324   1.087       .  S
C325        C326   1.343       .  D
C325        H327   1.087       .  S
C326        H328   1.087       .  S
C329        C330   1.350       .  D
C329        H331   1.086       .  S
C330        H332   1.087       .  S
C333        C334   1.349       .  D
C333        H335   1.087       .  S
C334        H336   1.086       .  S
C337        C338   1.353       .  D
C337        H339   1.087       .  S
C338        H340   1.086       .  S
C341        C342   1.356       .  D
C341        H343   1.086       .  S
C342        H344   1.086       .  S
C345        C346   1.345       .  D
C345        H347   1.086       .  S
C346        H348   1.088       .  S
C349        C350   1.355       .  D
C349        H351   1.087       .  S
C350        H352   1.086       .  S
C353        C354   1.343       .  D
C353        H355   1.086       .  S
C354        H356   1.087       .  S
C357        C358   1.355       .  D
C357        H359   1.089       .  S
C358        H360   1.085       .  S
C361        C362   1.409       .  A
C361        C366   1.399       .  A
C361        H367   1.082       .  S
C362        C363   1.407       .  A
C363        C364   1.399       .  A
C363        H368   1.083       .  S
C364        C365   1.402       .  A
C364        H369   1.083       .  S
C365        C366   1.401       .  A
C366        H370   1.084       .  S
C371        C372   1.402       .  A
C371        C376   1.401       .  A
C371        H377   1.083       .  S
C372        C373   1.412       .  A
C373        C374   1.397       .  A
C373        H378   1.081       .  S
C374        C375   1.399       .  A
C374        H379   1.083       .  S
C375        C376   1.410       .  A
C376        H380   1.083       .  S
C381        C382   1.405       .  A
C381        C386   1.401       .  A
C381        H387   1.083       .  S
C382        C383   1.411       .  A
C383        C384   1.402       .  A
C383        H388   1.081       .  S
C384        C385   1.401       .  A
C384        H389   1.083       .  S
C385        C386   1.406       .  A
C386        H390   1.083       .  S
C391        C392   1.404       .  A
C391        C396   1.399       .  A
C391        H397   1.083       .  S
C392        C393   1.411       .  A
C393        C394   1.396       .  A
C393        H398   1.083       .  S
C394        C395   1.398       .  A
C394        H399   1.084       .  S
C395        C396   1.406       .  A
C396        H400   1.083       .  S
C401        C402   1.399       .  A
C401        C406   1.397       .  A
C401        H407   1.083       .  S
C402        C403   1.407       .  A
C403        C404   1.400       .  A
C403        H408   1.083       .  S
C404        C405   1.404       .  A
C404        H409   1.083       .  S
C405        C406   1.410       .  A
C406        H410   1.082       .  S
C411        C412   1.408       .  A
C411        C416   1.401       .  A
C411        H417   1.083       .  S
C412        C413   1.408       .  A
C413        C414   1.397       .  A
C413        H418   1.082       .  S
C414        C415   1.401       .  A
C414        H419   1.084       .  S
C415        C416   1.402       .  A
C416        H420   1.083       .  S
C421        C422   1.408       .  A
C421        C426   1.401       .  A
C421        H427   1.083       .  S
C422        C423   1.399       .  A
C423        C424   1.396       .  A
C423        H428   1.083       .  S
C424        C425   1.410       .  A
C424        H429   1.081       .  S
C425        C426   1.404       .  A
C426        H430   1.083       .  S
C431        C432   1.409       .  A
C431        C436   1.398       .  A
C431        H437   1.082       .  S
C432        C433   1.407       .  A
C433        C434   1.398       .  A
C433        H438   1.083       .  S
C434        C435   1.401       .  A
C434        H439   1.083       .  S
C435        C436   1.401       .  A
C436        H440   1.084       .  S
C441        C442   1.408       .  A
C441        C446   1.399       .  A
C441        H447   1.083       .  S
C442        C443   1.406       .  A
C443        C444   1.396       .  A
C443        H448   1.083       .  S
C444        C445   1.402       .  A
C444        H449   1.084       .  S
C445        C446   1.401       .  A
C446        H450   1.083       .  S
C451        C452   1.401       .  A
C451        C456   1.404       .  A
C451        H457   1.083       .  S
C452        C453   1.410       .  A
C453        C454   1.391       .  A
C453        H458   1.080       .  S
C454        C455   1.395       .  A
C454        H459   1.083       .  S
C455        C456   1.413       .  A
C456        H460   1.083       .  S
C461        C462   1.408       .  A
C461        C466   1.401       .  A
C461        H467   1.083       .  S
C462        C463   1.407       .  A
C463        C464   1.394       .  A
C463        H468   1.081       .  S
C464        C465   1.399       .  A
C464        H469   1.084       .  S
C465        C466   1.403       .  A
C466        H470   1.083       .  S
C471        C472   1.403       .  A
C471        C476   1.406       .  A
C471        H477   1.083       .  S
C472        C473   1.411       .  A
C473        C474   1.393       .  A
C473        H478   1.079       .  S
C474        C475   1.397       .  A
C474        H479   1.084       .  S
C475        C476   1.411       .  A
C476        H480   1.083       .  S
C481        C482   1.408       .  A
C481        C486   1.390       .  A
C481        H487   1.080       .  S
C482        C483   1.404       .  A
C483        C484   1.402       .  A
C483        H488   1.083       .  S
C484        C485   1.408       .  A
C484        H489   1.083       .  S
C485        C486   1.397       .  A
C486        H490   1.084       .  S
C491        C492   1.408       .  A
C491        C496   1.401       .  A
C491        H497   1.083       .  S
C492        C493   1.406       .  A
C493        C494   1.392       .  A
C493        H498   1.080       .  S
C494        C495   1.398       .  A
C494        H499   1.084       .  S
C495        C496   1.402       .  A
C496        H500   1.083       .  S
C501        C502   1.409       .  A
C501        C506   1.392       .  A
C501        H507   1.080       .  S
C502        C503   1.402       .  A
C503        C504   1.405       .  A
C503        H508   1.083       .  S
C504        C505   1.411       .  A
C504        H509   1.083       .  S
C505        C506   1.396       .  A
C506        H510   1.083       .  S
C511        C512   1.405       .  A
C511        C516   1.395       .  A
C511        H517   1.083       .  S
C512        C513   1.407       .  A
C513        C514   1.398       .  A
C513        H518   1.083       .  S
C514        C515   1.399       .  A
C514        H519   1.083       .  S
C515        C516   1.402       .  A
C516        H520   1.084       .  S
C521        C522   1.399       .  A
C521        C526   1.403       .  A
C521        H527   1.083       .  S
C522        C523   1.408       .  A
C523        C524   1.394       .  A
C523        H528   1.078       .  S
C524        C525   1.398       .  A
C524        H529   1.083       .  S
C525        C526   1.414       .  A
C526        H530   1.083       .  S
C531        C532   1.406       .  A
C531        C536   1.393       .  A
C531        H537   1.083       .  S
C532        C533   1.409       .  A
C533        C534   1.399       .  A
C533        H538   1.083       .  S
C534        C535   1.401       .  A
C534        H539   1.083       .  S
C535        C536   1.401       .  A
C536        H540   1.084       .  S
C541        C542   1.412       .  A
C541        C546   1.401       .  A
C541        H547   1.084       .  S
C542        C543   1.398       .  A
C543        C544   1.402       .  A
C543        H548   1.083       .  S
C544        C545   1.417       .  A
C544        H549   1.082       .  S
C545        C546   1.401       .  A
C546        H550   1.083       .  S
C551        C552   1.408       .  A
C551        C556   1.397       .  A
C551        H557   1.082       .  S
C552        C553   1.407       .  A
C553        C554   1.398       .  A
C553        H558   1.083       .  S
C554        C555   1.403       .  A
C554        H559   1.084       .  S
C555        C556   1.401       .  A
C556        H560   1.084       .  S
C561        C562   1.409       .  A
C561        C566   1.399       .  A
C561        H567   1.082       .  S
C562        C563   1.407       .  A
C563        C564   1.397       .  A
C563        H568   1.083       .  S
C564        C565   1.402       .  A
C564        H569   1.083       .  S
C565        C566   1.400       .  A
C566        H570   1.083       .  S
C571        C572   1.409       .  A
C571        C576   1.392       .  A
C571        H577   1.080       .  S
C572        C573   1.402       .  A
C573        C574   1.406       .  A
C573        H578   1.083       .  S
C574        C575   1.412       .  A
C574        H579   1.083       .  S
C575        C576   1.397       .  A
C576        H580   1.084       .  S
C581        C582   1.407       .  A
C581        C586   1.396       .  A
C581        H587   1.083       .  S
C582        C583   1.406       .  A
C583        C584   1.392       .  A
C583        H588   1.082       .  S
C584        C585   1.399       .  A
C584        H589   1.084       .  S
C585        C586   1.399       .  A
C586        H590   1.083       .  S
C591        C592   1.415       .  A
C591        C596   1.399       .  A
C591        H597   1.082       .  S
C592        C593   1.403       .  A
C593        C594   1.404       .  A
C593        H598   1.083       .  S
C594        C595   1.412       .  A
C594        H599   1.083       .  S
C595        C596   1.397       .  A
C596        H600   1.083       .  S
O601       Zr613   2.443       .  S
O601        C603   1.287       .  A
O602       Zr639   2.412       .  S
O602        C603   1.283       .  A
C603       C1182   1.483       .  S
O604       Zr616   2.495       .  S
O604        C606   1.296       .  A
O605       Zr640   2.382       .  S
O605        C606   1.280       .  A
C606       C1122   1.480       .  S
O607       Zr616   2.495       .  S
O607        C609   1.298       .  A
O608       Zr639   2.380       .  S
O608        C609   1.278       .  A
C609       C1192   1.493       .  S
O610       Zr613   2.452       .  S
O610        C612   1.289       .  A
O611       Zr640   2.415       .  S
O611        C612   1.284       .  A
C612       C1132   1.482       .  S
Zr613       O614   2.435       .  S
Zr613       O615   2.433       .  S
Zr613       O619   2.268       .  S
Zr613       O620   2.364       .  S
Zr613       O643   2.380       .  S
Zr613       O645   2.384       .  S
O614        H657   0.990       .  S
O615        H656   0.990       .  S
O615        H660   0.990       .  S
Zr616       O617   2.436       .  S
Zr616       O618   2.434       .  S
Zr616       O619   2.274       .  S
Zr616       O620   2.373       .  S
Zr616       O644   2.392       .  S
Zr616       O646   2.395       .  S
O617        H658   0.990       .  S
O617        H661   0.990       .  S
O618        H651   0.990       .  S
O619       Zr639   2.249       .  S
O620       Zr640   2.383       .  S
O620        H647   0.964       .  S
O621       Zr633   2.511       .  S
O621        C623   1.300       .  A
O622       Zr640   2.376       .  S
O622        C623   1.278       .  A
C623       C1145   1.492       .  S
O624       Zr636   2.447       .  S
O624        C626   1.288       .  A
O625       Zr639   2.406       .  S
O625        C626   1.281       .  A
C626       C1162   1.482       .  S
O627       Zr636   2.453       .  S
O627        C629   1.290       .  A
O628       Zr640   2.414       .  S
O628        C629   1.284       .  A
C629       C1152   1.480       .  S
O630       Zr633   2.480       .  S
O630        C632   1.293       .  A
O631       Zr639   2.387       .  S
O631        C632   1.280       .  A
C632       C1172   1.483       .  S
Zr633       O634   2.438       .  S
Zr633       O635   2.433       .  S
Zr633       O642   2.289       .  S
Zr633       O641   2.358       .  S
Zr633       O645   2.393       .  S
Zr633       O643   2.386       .  S
O634        H654   0.990       .  S
O634        H659   0.991       .  S
O635        H655   0.990       .  S
Zr636       O637   2.437       .  S
Zr636       O638   2.433       .  S
Zr636       O642   2.279       .  S
Zr636       O641   2.370       .  S
Zr636       O646   2.381       .  S
Zr636       O644   2.377       .  S
O637        H653   0.990       .  S
O638        H652   0.990       .  S
O638        H662   0.990       .  S
Zr639       O642   2.257       .  S
Zr639       O644   2.386       .  S
Zr639       O645   2.387       .  S
Zr640       O641   2.386       .  S
Zr640       O643   2.390       .  S
Zr640       O646   2.389       .  S
O641        H649   0.961       .  S
O644        H648   0.974       .  S
O645        H650   0.966       .  S
O663       Zr675   2.488       .  S
O663        C665   1.295       .  A
O664       Zr701   2.381       .  S
O664        C665   1.279       .  A
C665       C1102   1.485       .  S
O666       Zr678   2.458       .  S
O666        C668   1.289       .  A
O667       Zr702   2.411   1_655  S
O667        C668   1.284       .  A
C668       C1062   1.484       .  S
O669       Zr678   2.434       .  S
O669        C671   1.285       .  A
O670       Zr701   2.419   1_655  S
O670        C671   1.284       .  A
C671       C1112   1.478       .  S
O672       Zr675   2.497       .  S
O672        C674   1.297       .  A
O673       Zr702   2.371       .  S
O673        C674   1.278       .  A
C674       C1072   1.487       .  S
Zr675       O676   2.434       .  S
Zr675       O677   2.434       .  S
Zr675       O681   2.278       .  S
Zr675       O682   2.373       .  S
Zr675       O705   2.390       .  S
Zr675       O707   2.395       .  S
O676        H719   0.990       .  S
O677        H718   0.990       .  S
O677        H722   0.990       .  S
Zr678       O679   2.439       .  S
Zr678       O680   2.434       .  S
Zr678       O681   2.275   1_655  S
Zr678       O682   2.368   1_655  S
Zr678       O706   2.384       .  S
Zr678       O708   2.377       .  S
O679        H720   0.990       .  S
O679        H723   0.991       .  S
O680        H713   0.990       .  S
O681       Zr701   2.253       .  S
O682       Zr702   2.382       .  S
O682        H709   0.965   1_455  S
O683       Zr695   2.462       .  S
O683        C685   1.290       .  A
O684       Zr702   2.408       .  S
O684        C685   1.283       .  A
C685       C1042   1.477       .  S
O686       Zr698   2.469       .  S
O686        C688   1.292       .  A
O687       Zr701   2.381   1_655  S
O687        C688   1.279       .  A
C688       C1082   1.483       .  S
O689       Zr698   2.493       .  S
O689        C691   1.296       .  A
O690       Zr702   2.377   1_655  S
O690        C691   1.279       .  A
C691       C1052   1.481       .  S
O692       Zr695   2.445       .  S
O692        C694   1.286       .  A
O693       Zr701   2.413       .  S
O693        C694   1.284       .  A
C694       C1092   1.483       .  S
Zr695       O696   2.440       .  S
Zr695       O697   2.433       .  S
Zr695       O704   2.284       .  S
Zr695       O703   2.370       .  S
Zr695       O707   2.384       .  S
Zr695       O705   2.377       .  S
O696        H716   0.990       .  S
O696        H721   0.991       .  S
O697        H717   0.990       .  S
Zr698       O699   2.434       .  S
Zr698       O700   2.434       .  S
Zr698       O704   2.289   1_655  S
Zr698       O703   2.361   1_655  S
Zr698       O708   2.386       .  S
Zr698       O706   2.390       .  S
O699        H715   0.990       .  S
O700        H714   0.990       .  S
O700        H724   0.990       .  S
Zr701       O704   2.255       .  S
Zr701       O706   2.384   1_455  S
Zr701       O707   2.385       .  S
Zr702       O703   2.382       .  S
Zr702       O705   2.386       .  S
Zr702       O708   2.383   1_455  S
O703        H711   0.963       .  S
O706        H710   0.962       .  S
O707        H712   0.967       .  S
O725       Zr737   2.458       .  S
O725        C727   1.290       .  A
O726       Zr763   2.394   1_565  S
O726        C727   1.281       .  A
C727       C1025   1.481       .  S
O728       Zr740   2.469       .  S
O728        C730   1.292       .  A
O729       Zr764   2.423       .  S
O729        C730   1.286       .  A
C730        C982   1.489       .  S
O731       Zr740   2.461       .  S
O731        C733   1.291       .  A
O732       Zr763   2.408       .  S
O732        C733   1.283       .  A
C733       C1032   1.489       .  S
O734       Zr737   2.478       .  S
O734        C736   1.294       .  A
O735       Zr764   2.392   1_565  S
O735        C736   1.281       .  A
C736        C992   1.485       .  S
Zr737       O738   2.436       .  S
Zr737       O739   2.433       .  S
Zr737       O743   2.278   1_565  S
Zr737       O744   2.364   1_565  S
Zr737       O767   2.383       .  S
Zr737       O769   2.389       .  S
O738        H781   0.990       .  S
O739        H780   0.990       .  S
O739        H784   0.990       .  S
Zr740       O741   2.439       .  S
Zr740       O742   2.434       .  S
Zr740       O743   2.274       .  S
Zr740       O744   2.369       .  S
Zr740       O768   2.386       .  S
Zr740       O770   2.385       .  S
O741        H782   0.990       .  S
O741        H785   0.991       .  S
O742        H775   0.990       .  S
O743       Zr763   2.258       .  S
O744       Zr764   2.391       .  S
O744        H771   0.964       .  S
O745       Zr757   2.460       .  S
O745        C747   1.290       .  A
O746       Zr764   2.429   1_565  S
O746        C747   1.287       .  A
C747        C962   1.488       .  S
O748       Zr760   2.468       .  S
O748        C750   1.292       .  A
O749       Zr763   2.397       .  S
O749        C750   1.281       .  A
C750       C1005   1.486       .  S
O751       Zr760   2.480       .  S
O751        C753   1.294       .  A
O752       Zr764   2.390       .  S
O752        C753   1.281       .  A
C753        C972   1.485       .  S
O754       Zr757   2.445       .  S
O754        C756   1.288       .  A
O755       Zr763   2.414   1_565  S
O755        C756   1.284       .  A
C756       C1012   1.485       .  S
Zr757       O758   2.438       .  S
Zr757       O759   2.434       .  S
Zr757       O766   2.275   1_565  S
Zr757       O765   2.370   1_565  S
Zr757       O769   2.384       .  S
Zr757       O767   2.380       .  S
O758        H778   0.990       .  S
O758        H783   0.991       .  S
O759        H779   0.990       .  S
Zr760       O761   2.435       .  S
Zr760       O762   2.433       .  S
Zr760       O766   2.276       .  S
Zr760       O765   2.370       .  S
Zr760       O770   2.385       .  S
Zr760       O768   2.387       .  S
O761        H777   0.990       .  S
O762        H776   0.990       .  S
O762        H786   0.990       .  S
Zr763       O766   2.255       .  S
Zr763       O768   2.390       .  S
Zr763       O769   2.389   1_545  S
Zr764       O765   2.389       .  S
Zr764       O767   2.392   1_545  S
Zr764       O770   2.396       .  S
O765        H773   0.964       .  S
O768        H772   0.970       .  S
O769        H774   0.953       .  S
C787        N788   1.373       .  A
C787        N792   1.367       .  A
C787        C957   1.495       .  S
N788        C789   1.372       .  A
C789       C1195   1.474       .  S
C789        N790   1.349       .  A
N790        C791   1.344       .  A
C791       C1105   1.477       .  S
C791        N792   1.361       .  A
C793        N794   1.365       .  A
C793        N798   1.361       .  A
C793        C953   1.474       .  S
N794        C795   1.360       .  A
C795       C1165   1.463       .  S
C795        N796   1.351       .  A
N796        C797   1.349       .  A
C797       C1095   1.465       .  S
C797        N798   1.359       .  A
C799        N800   1.368       .  A
C799        N804   1.367       .  A
C799        C949   1.481       .  S
N800        C801   1.358       .  A
C801       C1015   1.463       .  S
C801        N802   1.343       .  A
N802        C803   1.346       .  A
C803       C1045   1.458       .  S
C803        N804   1.362       .  A
C805        N806   1.361       .  A
C805        N810   1.366       .  A
C805        C946   1.487       .  S
N806        C807   1.360       .  A
C807       C1085   1.465       .  S
C807        N808   1.348       .  A
N808        C809   1.350       .  A
C809        C975   1.471       .  S
C809        N810   1.366       .  A
C811        N812   1.369       .  A
C811        N816   1.367       .  A
C811        C942   1.484       .  S
N812        C813   1.361       .  A
C813        C985   1.471       .  S
C813        N814   1.345       .  A
N814        C815   1.347       .  A
C815       C1115   1.459       .  S
C815        N816   1.361       .  A
C817        N818   1.367       .  A
C817        N822   1.368       .  A
C817        C937   1.485       .  S
N818        C819   1.363       .  A
C819       C1185   1.461       .  S
C819        N820   1.348       .  A
N820        C821   1.345       .  A
C821       C1035   1.467       .  S
C821        N822   1.360       .  A
C823        N824   1.366       .  A
C823        N828   1.365       .  A
C823        C933   1.491       .  S
N824        C825   1.365       .  A
C825       C1075   1.474       .  S
C825        N826   1.347       .  A
N826        C827   1.349       .  A
C827       C1022   1.467       .  S
C827        N828   1.361       .  A
C829        N830   1.367       .  A
C829        N834   1.367       .  A
C829        C930   1.496       .  S
N830        C831   1.364       .  A
C831       C1002   1.473       .  S
C831        N832   1.350       .  A
N832        C833   1.348       .  A
C833       C1175   1.478       .  S
C833        N834   1.366       .  A
O835       Zr871   2.533   1_445  S
O835        C846   1.311       .  A
O836       Zr870   2.442       .  S
O836        C847   1.293       .  A
O837       Zr843   2.468   1_655  S
O837        C848   1.296       .  A
O838       Zr843   2.481       .  S
O838        C849   1.298       .  A
O839        C849   1.289       .  A
O840        C848   1.289       .  A
O841        C847   1.295       .  A
O842       Zr843   2.381       .  S
O842        C846   1.283       .  A
Zr843       O845   2.347   1_455  S
Zr843       O853   2.348       .  S
O844       Zr870   2.354       .  S
O844       Zr873   2.330   1_545  S
O845       Zr871   2.346   1_545  S
C846        C958   1.492       .  S
C847        C954   1.475       .  S
C848        C941   1.489       .  S
C849        C938   1.493       .  S
H850        O851   0.966       .  S
O851       Zr870   2.370   1_655  S
O851       Zr872   2.342   1_545  S
H852        O853   0.966       .  S
O853       Zr871   2.348   1_445  S
O854       Zr870   2.522   1_665  S
O854        C877   1.309       .  A
O855       Zr871   2.449       .  S
O855        C878   1.294       .  A
O856       Zr872   2.420   1_545  S
O856        C879   1.287       .  A
O857       Zr873   2.423   1_545  S
O857        C880   1.288       .  A
O858        C881   1.288       .  A
O859        C882   1.289       .  A
O860       Zr874   2.477       .  S
O860        C883   1.298       .  A
O861       Zr874   2.481       .  S
O861        C884   1.298   1_655  A
O862       Zr872   2.410       .  S
O862        C883   1.287       .  A
O863       Zr873   2.411       .  S
O863        C884   1.287       .  A
O864       Zr870   2.491   1_655  S
O864        C879   1.302       .  A
O865       Zr871   2.493       .  S
O865        C882   1.302       .  A
O866       Zr871   2.480   1_455  S
O866        C881   1.300       .  A
O867       Zr870   2.492       .  S
O867        C880   1.302       .  A
O868       Zr874   2.383       .  S
O868        C877   1.283       .  A
O869       Zr874   2.454       .  S
Zr870       O876   2.341   1_445  S
Zr870       O888   2.351   1_545  S
Zr871       O875   2.369   1_655  S
Zr871       O886   2.368       .  S
Zr872       O876   2.331       .  S
Zr873       O888   2.336       .  S
Zr874       O876   2.345       .  S
Zr874       O888   2.351   1_655  S
C877        C914   1.487       .  S
C878        C925   1.477       .  S
C879        C945   1.478       .  S
C880        C929   1.485       .  S
C881        C934   1.478       .  S
C882        C921   1.485       .  S
C883        C918   1.489       .  S
C884        C950   1.490       .  S
H885        O886   0.966       .  S
H887        O888   0.967       .  S
C889        N890   1.369       .  A
C889        N894   1.365       .  A
C889        C917   1.480       .  S
N890        C891   1.361       .  A
C891        C965   1.472       .  S
C891        N892   1.344       .  A
N892        C893   1.346       .  A
C893       C1155   1.457       .  S
C893        N894   1.360       .  A
C895        N896   1.369       .  A
C895        N900   1.366       .  A
C895        C922   1.495       .  S
N896        C897   1.366       .  A
C897        C995   1.470       .  S
C897        N898   1.348       .  A
N898        C899   1.346       .  A
C899       C1125   1.479       .  S
C899        N900   1.364       .  A
C901        N902   1.367       .  A
C901        N906   1.371       .  A
C901        C913   1.492       .  S
N902        C903   1.362       .  A
C903       C1055   1.479       .  S
C903        N904   1.344       .  A
N904        C905   1.348       .  A
C905       C1142   1.471       .  S
C905        N906   1.369       .  A
C907        N908   1.364       .  A
C907        N912   1.365       .  A
C907        C926   1.478       .  S
N908        C909   1.361       .  A
C909       C1065   1.464       .  S
C909        N910   1.347       .  A
N910        C911   1.348       .  A
C911       C1135   1.462       .  S
C911        N912   1.360       .  A
C913        C914   1.355       .  D
C913        H915   1.088       .  S
C914        H916   1.085       .  S
C917        C918   1.356       .  D
C917        H919   1.087       .  S
C918        H920   1.086       .  S
C921        C922   1.349       .  D
C921        H923   1.086       .  S
C922        H924   1.087       .  S
C925        C926   1.343       .  D
C925        H927   1.087       .  S
C926        H928   1.087       .  S
C929        C930   1.351       .  D
C929        H931   1.086       .  S
C930        H932   1.087       .  S
C933        C934   1.348       .  D
C933        H935   1.087       .  S
C934        H936   1.086       .  S
C937        C938   1.355       .  D
C937        H939   1.086       .  S
C938        H940   1.086       .  S
C941        C942   1.354       .  D
C941        H943   1.086       .  S
C942        H944   1.087       .  S
C945        C946   1.346       .  D
C945        H947   1.086       .  S
C946        H948   1.088       .  S
C949        C950   1.355       .  D
C949        H951   1.087       .  S
C950        H952   1.086       .  S
C953        C954   1.341       .  D
C953        H955   1.087       .  S
C954        H956   1.087       .  S
C957        C958   1.356       .  D
C957        H959   1.088       .  S
C958        H960   1.085       .  S
C961        C962   1.409       .  A
C961        C966   1.401       .  A
C961        H967   1.080       .  S
C962        C963   1.406       .  A
C963        C964   1.399       .  A
C963        H968   1.083       .  S
C964        C965   1.406       .  A
C964        H969   1.084       .  S
C965        C966   1.401       .  A
C966        H970   1.083       .  S
C971        C972   1.404       .  A
C971        C976   1.401       .  A
C971        H977   1.083       .  S
C972        C973   1.411       .  A
C973        C974   1.394       .  A
C973        H978   1.082       .  S
C974        C975   1.398       .  A
C974        H979   1.083       .  S
C975        C976   1.408       .  A
C976        H980   1.083       .  S
C981        C982   1.405       .  A
C981        C986   1.398       .  A
C981        H987   1.083       .  S
C982        C983   1.410       .  A
C983        C984   1.402       .  A
C983        H988   1.080       .  S
C984        C985   1.401       .  A
C984        H989   1.083       .  S
C985        C986   1.404       .  A
C986        H990   1.084       .  S
C991        C992   1.404       .  A
C991        C996   1.400       .  A
C991        H997   1.083       .  S
C992        C993   1.411       .  A
C993        C994   1.396       .  A
C993        H998   1.082       .  S
C994        C995   1.398       .  A
C994        H999   1.083       .  S
C995        C996   1.408       .  A
C996       H1000   1.083       .  S
C1001      C1002   1.399       .  A
C1001      C1006   1.397       .  A
C1001      H1007   1.083       .  S
C1002      C1003   1.408       .  A
C1003      C1004   1.400       .  A
C1003      H1008   1.083       .  S
C1004      C1005   1.403       .  A
C1004      H1009   1.083       .  S
C1005      C1006   1.411       .  A
C1006      H1010   1.081       .  S
C1011      C1012   1.408       .  A
C1011      C1016   1.399       .  A
C1011      H1017   1.083       .  S
C1012      C1013   1.407       .  A
C1013      C1014   1.397       .  A
C1013      H1018   1.082       .  S
C1014      C1015   1.402       .  A
C1014      H1019   1.084       .  S
C1015      C1016   1.401       .  A
C1016      H1020   1.083       .  S
C1021      C1022   1.406       .  A
C1021      C1026   1.398       .  A
C1021      H1027   1.083       .  S
C1022      C1023   1.399       .  A
C1023      C1024   1.394       .  A
C1023      H1028   1.084       .  S
C1024      C1025   1.409       .  A
C1024      H1029   1.082       .  S
C1025      C1026   1.403       .  A
C1026      H1030   1.083       .  S
C1031      C1032   1.409       .  A
C1031      C1036   1.398       .  A
C1031      H1037   1.082       .  S
C1032      C1033   1.407       .  A
C1033      C1034   1.401       .  A
C1033      H1038   1.083       .  S
C1034      C1035   1.402       .  A
C1034      H1039   1.083       .  S
C1035      C1036   1.401       .  A
C1036      H1040   1.084       .  S
C1041      C1042   1.407       .  A
C1041      C1046   1.399       .  A
C1041      H1047   1.083       .  S
C1042      C1043   1.404       .  A
C1043      C1044   1.394       .  A
C1043      H1048   1.083       .  S
C1044      C1045   1.403       .  A
C1044      H1049   1.084       .  S
C1045      C1046   1.399       .  A
C1046      H1050   1.083       .  S
C1051      C1052   1.399       .  A
C1051      C1056   1.403       .  A
C1051      H1057   1.083       .  S
C1052      C1053   1.410       .  A
C1053      C1054   1.393       .  A
C1053      H1058   1.080       .  S
C1054      C1055   1.396       .  A
C1054      H1059   1.083       .  S
C1055      C1056   1.414       .  A
C1056      H1060   1.083       .  S
C1061      C1062   1.407       .  A
C1061      C1066   1.402       .  A
C1061      H1067   1.083       .  S
C1062      C1063   1.407       .  A
C1063      C1064   1.393       .  A
C1063      H1068   1.080       .  S
C1064      C1065   1.398       .  A
C1064      H1069   1.084       .  S
C1065      C1066   1.405       .  A
C1066      H1070   1.083       .  S
C1071      C1072   1.402       .  A
C1071      C1076   1.406       .  A
C1071      H1077   1.083       .  S
C1072      C1073   1.412       .  A
C1073      C1074   1.391       .  A
C1073      H1078   1.080       .  S
C1074      C1075   1.395       .  A
C1074      H1079   1.084       .  S
C1075      C1076   1.412       .  A
C1076      H1080   1.083       .  S
C1081      C1082   1.409       .  A
C1081      C1086   1.388       .  A
C1081      H1087   1.082       .  S
C1082      C1083   1.405       .  A
C1083      C1084   1.404       .  A
C1083      H1088   1.083       .  S
C1084      C1085   1.408       .  A
C1084      H1089   1.083       .  S
C1085      C1086   1.396       .  A
C1086      H1090   1.084       .  S
C1091      C1092   1.407       .  A
C1091      C1096   1.403       .  A
C1091      H1097   1.083       .  S
C1092      C1093   1.403       .  A
C1093      C1094   1.390       .  A
C1093      H1098   1.075       .  S
C1094      C1095   1.397       .  A
C1094      H1099   1.084       .  S
C1095      C1096   1.406       .  A
C1096      H1100   1.083       .  S
C1101      C1102   1.410       .  A
C1101      C1106   1.392       .  A
C1101      H1107   1.080       .  S
C1102      C1103   1.402       .  A
C1103      C1104   1.406       .  A
C1103      H1108   1.083       .  S
C1104      C1105   1.413       .  A
C1104      H1109   1.083       .  S
C1105      C1106   1.396       .  A
C1106      H1110   1.083       .  S
C1111      C1112   1.404       .  A
C1111      C1116   1.394       .  A
C1111      H1117   1.083       .  S
C1112      C1113   1.408       .  A
C1113      C1114   1.398       .  A
C1113      H1118   1.083       .  S
C1114      C1115   1.399       .  A
C1114      H1119   1.083       .  S
C1115      C1116   1.403       .  A
C1116      H1120   1.084       .  S
C1121      C1122   1.399       .  A
C1121      C1126   1.404       .  A
C1121      H1127   1.083       .  S
C1122      C1123   1.409       .  A
C1123      C1124   1.393       .  A
C1123      H1128   1.079       .  S
C1124      C1125   1.398       .  A
C1124      H1129   1.083       .  S
C1125      C1126   1.414       .  A
C1126      H1130   1.083       .  S
C1131      C1132   1.406       .  A
C1131      C1136   1.394       .  A
C1131      H1137   1.083       .  S
C1132      C1133   1.409       .  A
C1133      C1134   1.400       .  A
C1133      H1138   1.083       .  S
C1134      C1135   1.402       .  A
C1134      H1139   1.083       .  S
C1135      C1136   1.400       .  A
C1136      H1140   1.084       .  S
C1141      C1142   1.411       .  A
C1141      C1146   1.402       .  A
C1141      H1147   1.083       .  S
C1142      C1143   1.396       .  A
C1143      C1144   1.397       .  A
C1143      H1148   1.084       .  S
C1144      C1145   1.416       .  A
C1144      H1149   1.082       .  S
C1145      C1146   1.402       .  A
C1146      H1150   1.083       .  S
C1151      C1152   1.409       .  A
C1151      C1156   1.397       .  A
C1151      H1157   1.082       .  S
C1152      C1153   1.405       .  A
C1153      C1154   1.394       .  A
C1153      H1158   1.083       .  S
C1154      C1155   1.401       .  A
C1154      H1159   1.084       .  S
C1155      C1156   1.400       .  A
C1156      H1160   1.084       .  S
C1161      C1162   1.410       .  A
C1161      C1166   1.399       .  A
C1161      H1167   1.083       .  S
C1162      C1163   1.404       .  A
C1163      C1164   1.394       .  A
C1163      H1168   1.083       .  S
C1164      C1165   1.401       .  A
C1164      H1169   1.084       .  S
C1165      C1166   1.401       .  A
C1166      H1170   1.083       .  S
C1171      C1172   1.407       .  A
C1171      C1176   1.392       .  A
C1171      H1177   1.078       .  S
C1172      C1173   1.402       .  A
C1173      C1174   1.407       .  A
C1173      H1178   1.083       .  S
C1174      C1175   1.414       .  A
C1174      H1179   1.083       .  S
C1175      C1176   1.397       .  A
C1176      H1180   1.083       .  S
C1181      C1182   1.407       .  A
C1181      C1186   1.398       .  A
C1181      H1187   1.083       .  S
C1182      C1183   1.407       .  A
C1183      C1184   1.397       .  A
C1183      H1188   1.082       .  S
C1184      C1185   1.401       .  A
C1184      H1189   1.084       .  S
C1185      C1186   1.401       .  A
C1186      H1190   1.083       .  S
C1191      C1192   1.415       .  A
C1191      C1196   1.398       .  A
C1191      H1197   1.083       .  S
C1192      C1193   1.402       .  A
C1193      C1194   1.403       .  A
C1193      H1198   1.083       .  S
C1194      C1195   1.411       .  A
C1194      H1199   1.083       .  S
C1195      C1196   1.397       .  A
C1196      H1200   1.083       .  S
