geometry optimzed in LAMMPS
_audit_creation_date              2020-11-30 
_audit_creation_method            'lammps2cif' 
_symmetry_space_group_name_H-M    'P1' 
_symmetry_Int_Tables_number       1 
_symmetry_cell_setting            triclinic 
loop_ 
_symmetry_equiv_pos_as_xyz 
  x,y,z 
_cell_length_a                    26.362513127247855 
_cell_length_b                    26.595564000611986 
_cell_length_c                    46.48524558866826 
_cell_angle_alpha                 78.96603384651263 
_cell_angle_beta                  93.99382752891667 
_cell_angle_gamma                 109.64332406207902 
loop_ 
_atom_site_label 
_atom_site_type_symbol 
_atom_site_fract_x 
_atom_site_fract_y 
_atom_site_fract_z 
_atom_site_charge 
O1          O  0.85951271  0.95572880  0.48088432    -0.81820
O2          O  0.10544036  0.98422666  0.48983744    -0.66510
O3          O  0.95823090  0.95173342  0.00832240    -1.13110
C4          C  0.01014777  0.14165461  0.00598564     1.05070
O5          O  0.13580547  0.03805052  0.02264926    -0.79720
O6          O  0.06352605  0.05438658  0.05525012    -0.67300
Ni7        Ni  0.90175189  0.90730035  0.48682954     1.34870
C8          C  0.01554041  0.03047350  0.06432177     0.83800
O9          O  0.02414978  0.89161848  0.50147534    -0.80260
O10         O  0.93645275  0.85293518  0.49148985    -0.90530
C11         C  0.14311718  0.00857555  0.00580421     0.83370
O12         O  0.93137867  0.93825873  0.44864844    -0.68740
O13         O  0.05748504  0.13975784  0.01225831    -0.88020
C14         C  0.97938630  0.96197703  0.43966367     0.84200
C15         C  0.98364816  0.85066687  0.49768143     1.05770
H16         H  0.04120155  0.05830961  0.47524931     0.37580
O17         O  0.03666794  0.04062160  0.49554351    -1.10680
O18         O  0.97533449  0.01897911  0.04713173    -0.67340
Ni19       Ni  0.96354258  0.02576776  0.00551356     1.26350
O20         O  0.01985048  0.97342251  0.45671944    -0.67560
O21         O  0.97027641  0.10040692  0.00209600    -0.79860
C22         C  0.85244219  0.98500065  0.49790873     0.83590
O23         O  0.88979875  0.00800965  0.01436759    -0.67030
Ni24       Ni  0.09279226  0.08569854  0.01693488     1.27450
Ni25       Ni  0.03139901  0.96646443  0.49838986     1.26060
H26         H  0.95358495  0.93396068  0.02860061     0.38130
O27         O  0.86134082  0.95838699  0.23120919    -0.81820
O28         O  0.10670996  0.98531356  0.24006681    -0.66510
O29         O  0.95990379  0.95414706  0.25873225    -1.13110
C30         C  0.01463925  0.14288900  0.25830628     1.05070
O31         O  0.13761498  0.03657675  0.27395785    -0.79720
O32         O  0.06525435  0.05212284  0.30661034    -0.67300
Ni33       Ni  0.90370185  0.91016076  0.23687176     1.34870
C34         C  0.01684461  0.03028564  0.31516460     0.83800
O35         O  0.02517136  0.89387625  0.25202656    -0.80260
O36         O  0.93851210  0.85599379  0.24095994    -0.90530
C37         C  0.14440716  0.00814368  0.25638787     0.83370
O38         O  0.93347814  0.94165854  0.19881339    -0.68740
O39         O  0.06121028  0.13948112  0.26528363    -0.88020
C40         C  0.98164806  0.96456416  0.18992234     0.84200
C41         C  0.98553388  0.85325363  0.24729076     1.05770
H42         H  0.04481464  0.06063993  0.22627391     0.37580
O43         O  0.03940896  0.04239180  0.24645314    -1.10680
O44         O  0.97672030  0.02112419  0.29776427    -0.67340
Ni45       Ni  0.96617775  0.02838241  0.25595949     1.26350
O46         O  0.02169727  0.97563860  0.20723773    -0.67560
O47         O  0.97457214  0.10317840  0.25266713    -0.79860
C48         C  0.85450522  0.98807204  0.24804485     0.83590
O49         O  0.89213093  0.01172999  0.26421856    -0.67030
Ni50       Ni  0.09562614  0.08512854  0.26884508     1.27450
Ni51       Ni  0.03300849  0.96834596  0.24892410     1.26060
H52         H  0.95496235  0.93625932  0.27898478     0.38130
O53         O  0.86104901  0.45867049  0.47788727    -0.81820
O54         O  0.10766464  0.48425190  0.48766922    -0.66510
O55         O  0.95995982  0.45387604  0.00477442    -1.13110
C56         C  0.01551813  0.64439934  0.00261415     1.05070
O57         O  0.13686851  0.53697133  0.02094240    -0.79720
O58         O  0.06590981  0.55725250  0.05228397    -0.67300
Ni59       Ni  0.90450724  0.41168585  0.48176553     1.34870
C60         C  0.01790838  0.53302474  0.06123137     0.83800
O61         O  0.02522364  0.39243371  0.49892376    -0.80260
O62         O  0.93958050  0.35786942  0.48426020    -0.90530
C63         C  0.14534926  0.50962930  0.00327345     0.83370
O64         O  0.93541667  0.44821587  0.44439215    -0.68740
O65         O  0.06274925  0.64204994  0.00846658    -0.88020
C66         C  0.98408462  0.46876841  0.43600707     0.84200
C67         C  0.98541095  0.35343133  0.49223231     1.05770
H68         H  0.04451432  0.55957088  0.47236645     0.37580
O69         O  0.03963959  0.54198662  0.49267037    -1.10680
O70         O  0.97780038  0.52065114  0.04404153    -0.67340
Ni71       Ni  0.96657693  0.52832761  0.00235600     1.26350
O72         O  0.02352233  0.47459723  0.45382307    -0.67560
O73         O  0.97472542  0.60332572  0.99946164    -0.79860
C74         C  0.85479847  0.48827888  0.49494742     0.83590
O75         O  0.89281187  0.51176199  0.01095696    -0.67030
Ni76       Ni  0.09616619  0.58659147  0.01408849     1.27450
Ni77       Ni  0.03343853  0.46750272  0.49563580     1.26060
H78         H  0.95400913  0.43540349  0.02489646     0.38130
O79         O  0.86012316  0.45387542  0.22911606    -0.81820
O80         O  0.10812129  0.48552226  0.23650444    -0.66510
O81         O  0.96125503  0.45406617  0.25517187    -1.13110
C82         C  0.01207555  0.64263555  0.25322169     1.05070
O83         O  0.14050066  0.54211970  0.26784416    -0.79720
O84         O  0.06646146  0.55236837  0.30132419    -0.67300
Ni85       Ni  0.90545521  0.40872800  0.23353086     1.34870
C86         C  0.01814343  0.53238648  0.31017144     0.83800
O87         O  0.02769318  0.39407553  0.25013021    -0.80260
O88         O  0.94216377  0.35620811  0.23670967    -0.90530
C89         C  0.14625058  0.51059737  0.25186940     0.83370
O90         O  0.93413420  0.44300452  0.19542892    -0.68740
O91         O  0.05825932  0.63928621  0.26128984    -0.88020
C92         C  0.98238990  0.46448490  0.18646746     0.84200
C93         C  0.98868695  0.35363635  0.24454725     1.05770
H94         H  0.04540205  0.56008730  0.22111896     0.37580
O95         O  0.04011909  0.54280498  0.24145881    -1.10680
O96         O  0.97800769  0.52410392  0.29273297    -0.67340
Ni97       Ni  0.96687124  0.52840151  0.25097143     1.26350
O98         O  0.02271547  0.47328731  0.20375210    -0.67560
O99         O  0.97393827  0.60298788  0.24611440    -0.79860
C100        C  0.85453115  0.48598209  0.24477020     0.83590
O101        O  0.89328470  0.51180559  0.25955318    -0.67030
Ni102      Ni  0.09541668  0.58740381  0.26358976     1.27450
Ni103      Ni  0.03451996  0.46857365  0.24539643     1.26060
H104        H  0.95635873  0.43715168  0.27557838     0.38130
O105        O  0.36002439  0.95762533  0.48113293    -0.81820
O106        O  0.60677269  0.98789060  0.48751920    -0.66510
O107        O  0.46035889  0.95618398  0.00719732    -1.13110
C108        C  0.51383417  0.14598040  0.00385866     1.05070
O109        O  0.63839052  0.04152286  0.02025672    -0.79720
O110        O  0.56708685  0.05816680  0.05295748    -0.67300
Ni111      Ni  0.40394618  0.91095146  0.48594374     1.34870
C112        C  0.51927743  0.03586613  0.06242431     0.83800
O113        O  0.52630111  0.89605221  0.50082771    -0.80260
O114        O  0.43985855  0.85754315  0.48953995    -0.90530
C115        C  0.64465834  0.01136671  0.00354822     0.83370
O116        O  0.43214684  0.94337761  0.44753376    -0.68740
O117        O  0.56104374  0.14388007  0.01009641    -0.88020
C118        C  0.48012740  0.96589787  0.43829353     0.84200
C119        C  0.48684313  0.85502789  0.49633066     1.05770
H120        H  0.54313648  0.06214718  0.47311893     0.37580
O121        O  0.53883792  0.04482915  0.49347904    -1.10680
O122        O  0.47847186  0.02525050  0.04548726    -0.67340
Ni123      Ni  0.46589607  0.03049061  0.00386599     1.26350
O124        O  0.52086248  0.97622467  0.45522777    -0.67560
O125        O  0.47325362  0.10525169  0.00009330    -0.79860
C126        C  0.35383155  0.98839910  0.49751101     0.83590
O127        O  0.39214694  0.01329813  0.01294085    -0.67030
Ni128      Ni  0.59581924  0.08955243  0.01459365     1.27450
Ni129      Ni  0.53327732  0.97067713  0.49682227     1.26060
H130        H  0.45604357  0.93891357  0.02756362     0.38130
O131        O  0.36039893  0.95955245  0.23066261    -0.81820
O132        O  0.60663542  0.98620716  0.23809074    -0.66510
O133        O  0.45971325  0.95520462  0.25691727    -1.13110
C134        C  0.51474812  0.14497167  0.25627178     1.05070
O135        O  0.63733270  0.03820706  0.27168767    -0.79720
O136        O  0.56629447  0.05595093  0.30439932    -0.67300
Ni137      Ni  0.40324072  0.91195745  0.23488726     1.34870
C138        C  0.51824167  0.03274505  0.31342119     0.83800
O139        O  0.52477073  0.89445284  0.25011802    -0.80260
O140        O  0.43818175  0.85788460  0.23763608    -0.90530
C141        C  0.64425138  0.00919328  0.25447035     0.83370
O142        O  0.43243808  0.94638349  0.19699885    -0.68740
O143        O  0.56190606  0.14223643  0.26201445    -0.88020
C144        C  0.48051064  0.96734425  0.18784102     0.84200
C145        C  0.48487402  0.85461559  0.24444767     1.05770
H146        H  0.54362696  0.06148896  0.22410520     0.37580
O147        O  0.53898242  0.04355842  0.24435746    -1.10680
O148        O  0.47784611  0.02176736  0.29630909    -0.67340
Ni149      Ni  0.46607727  0.02951532  0.25463188     1.26350
O150        O  0.52108548  0.97592847  0.20503097    -0.67560
O151        O  0.47425866  0.10448774  0.25187333    -0.79860
C152        C  0.35427374  0.98882485  0.24794282     0.83590
O153        O  0.39243798  0.01253504  0.26378311    -0.67030
Ni154      Ni  0.59577958  0.08719826  0.26614420     1.27450
Ni155      Ni  0.53275049  0.96926707  0.24685820     1.26060
H156        H  0.45481816  0.93696080  0.27711036     0.38130
O157        O  0.36268920  0.45897064  0.47969118    -0.81820
O158        O  0.60746812  0.48679623  0.48690158    -0.66510
O159        O  0.46077545  0.45370960  0.00625517    -1.13110
C160        C  0.51323867  0.64321211  0.00580188     1.05070
O161        O  0.63831805  0.53898926  0.02042902    -0.79720
O162        O  0.56708800  0.55455202  0.05375301    -0.67300
Ni163      Ni  0.40362853  0.40952554  0.48529272     1.34870
C164        C  0.51960864  0.52860425  0.06309724     0.83800
O165        O  0.52624908  0.39420448  0.49826969    -0.80260
O166        O  0.43769899  0.35469053  0.49012656    -0.90530
C167        C  0.64521153  0.51006385  0.00314816     0.83370
O168        O  0.43278200  0.43971317  0.44693735    -0.68740
O169        O  0.56064903  0.64101962  0.01145405    -0.88020
C170        C  0.48053540  0.46433389  0.43770547     0.84200
C171        C  0.48534638  0.35310533  0.49535802     1.05770
H172        H  0.54291262  0.56094370  0.47380579     0.37580
O173        O  0.53890168  0.54268460  0.49400553    -1.10680
O174        O  0.47865722  0.51798436  0.04635869    -0.67340
Ni175      Ni  0.46599230  0.52730394  0.00475550     1.26350
O176        O  0.52122585  0.47669830  0.45449390    -0.67560
O177        O  0.47295665  0.60172873  0.00272785    -0.79860
C178        C  0.35437231  0.48463629  0.49835754     0.83590
O179        O  0.39226031  0.50880482  0.01424332    -0.67030
Ni180      Ni  0.59566212  0.58688901  0.01541715     1.27450
Ni181      Ni  0.53362880  0.46877503  0.49596796     1.26060
H182        H  0.45654425  0.43504412  0.02633314     0.38130
O183        O  0.36313438  0.46038452  0.22925373    -0.81820
O184        O  0.60835284  0.48788203  0.23884998    -0.66510
O185        O  0.46128389  0.45582497  0.25696218    -1.13110
C186        C  0.51395860  0.64502455  0.25671720     1.05070
O187        O  0.63980397  0.54169985  0.27149054    -0.79720
O188        O  0.56660486  0.55539543  0.30472742    -0.67300
Ni189      Ni  0.40542548  0.41225209  0.23469383     1.34870
C190        C  0.51828968  0.53269265  0.31341732     0.83800
O191        O  0.52709990  0.39573258  0.24973637    -0.80260
O192        O  0.44002015  0.35787543  0.23859203    -0.90530
C193        C  0.64645932  0.51196017  0.25462520     0.83370
O194        O  0.43571273  0.44535440  0.19686088    -0.68740
O195        O  0.56091673  0.64247752  0.26341663    -0.88020
C196        C  0.48378778  0.47000976  0.18817711     0.84200
C197        C  0.48707086  0.35527246  0.24482854     1.05770
H198        H  0.54545982  0.56299195  0.22512789     0.37580
O199        O  0.54032075  0.54456827  0.24517956    -1.10680
O200        O  0.47796604  0.52267754  0.29619019    -0.67340
Ni201      Ni  0.46700025  0.52997096  0.25452034     1.26350
O202        O  0.52398388  0.47956085  0.20548469    -0.67560
O203        O  0.47428413  0.60465570  0.25141758    -0.79860
C204        C  0.35583192  0.48930641  0.24637617     0.83590
O205        O  0.39301873  0.51247207  0.26288354    -0.67030
Ni206      Ni  0.59638528  0.58881925  0.26685177     1.27450
Ni207      Ni  0.53456278  0.47050227  0.24729566     1.26060
H208        H  0.45616082  0.43762054  0.27715696     0.38130
C209        C  0.48970077  0.48045862  0.40583997    -0.07050
C210        C  0.52621961  0.53202281  0.39523768    -0.18180
C211        C  0.53517996  0.55068235  0.36522239     0.10140
C212        C  0.50815909  0.51658351  0.34517075    -0.06980
C213        C  0.47143811  0.46512164  0.35572245    -0.18210
C214        C  0.46251771  0.44640528  0.38577073     0.10170
S215        S  0.57923112  0.61936499  0.35390423    -0.33180
S216        S  0.41861398  0.37766853  0.39707947    -0.33190
H217        H  0.44953925  0.36620400  0.42180576     0.28180
H218        H  0.54885860  0.63063766  0.32889603     0.28180
H219        H  0.54676081  0.55870146  0.41042712     0.18770
H220        H  0.45095877  0.43851344  0.34049031     0.18780
C221        C  0.49335323  0.48646554  0.15625389    -0.07050
C222        C  0.46382373  0.45047429  0.13795019    -0.18180
C223        C  0.47292757  0.46208566  0.10778741     0.10140
C224        C  0.51143420  0.51164948  0.09512715    -0.06980
C225        C  0.54127034  0.54748019  0.11345818    -0.18210
C226        C  0.53227363  0.53576768  0.14365801     0.10170
S227        S  0.43736967  0.41001898  0.08715014    -0.33180
S228        S  0.56833710  0.58742407  0.16442936    -0.33190
H229        H  0.52086208  0.58596285  0.17718408     0.28180
H230        H  0.48480523  0.41304198  0.07373060     0.28180
H231        H  0.43470530  0.41198979  0.14735910     0.18770
H232        H  0.57034314  0.58598790  0.10404747     0.18780
C233        C  0.49257584  0.80135018  0.24644375    -0.07050
C234        C  0.45113036  0.75421455  0.25847538    -0.18180
C235        C  0.45739802  0.70304126  0.26289788     0.10140
C236        C  0.50579802  0.69815321  0.25438382    -0.06980
C237        C  0.54716039  0.74527747  0.24227027    -0.18210
C238        C  0.54091375  0.79642957  0.23786661     0.10170
S239        S  0.40333458  0.64628006  0.28104395    -0.33180
S240        S  0.59506409  0.85318036  0.21977464    -0.33190
H241        H  0.56120679  0.87900710  0.20310834     0.28180
H242        H  0.43731965  0.62090888  0.29795487     0.28180
H243        H  0.41417931  0.75744564  0.26551426     0.18770
H244        H  0.58413998  0.74208003  0.23524781     0.18780
C245        C  0.50722228  0.19839113  0.25419143    -0.07050
C246        C  0.54796025  0.24528981  0.24119729    -0.18180
C247        C  0.54209546  0.29662342  0.23716533     0.10140
C248        C  0.49485528  0.30195781  0.24698822    -0.06980
C249        C  0.45416036  0.25506885  0.26001763    -0.18210
C250        C  0.46006275  0.20376553  0.26409815     0.10170
S251        S  0.59507703  0.35300780  0.21788968    -0.33180
S252        S  0.40727188  0.14746797  0.28359244    -0.33190
H253        H  0.44230946  0.12228502  0.29953226     0.28180
H254        H  0.56036398  0.37881705  0.20215363     0.28180
H255        H  0.58405185  0.24175581  0.23320778     0.18770
H256        H  0.41807355  0.25860341  0.26801499     0.18780
C257        C  0.50525641  0.69696445  0.00295795    -0.07050
C258        C  0.54420478  0.73791949  0.01534445    -0.18180
C259        C  0.54027958  0.78968536  0.01317113     0.10140
C260        C  0.49531606  0.80156373  0.49874877    -0.06980
C261        C  0.45638546  0.76062536  0.48630480    -0.18210
C262        C  0.46082981  0.70900871  0.48794912     0.10170
S263        S  0.59376071  0.83768434  0.03001117    -0.33180
S264        S  0.41079969  0.66099482  0.46907362    -0.33190
H265        H  0.37321162  0.68882294  0.46389190     0.28180
H266        H  0.61207444  0.87160894  0.00298520     0.28180
H267        H  0.57849699  0.72972060  0.02692062     0.18770
H268        H  0.42258069  0.76944758  0.47456321     0.18780
C269        C  0.50586328  0.19872522  0.00088778    -0.07050
C270        C  0.47840879  0.20769317  0.02312725    -0.18180
C271        C  0.47240819  0.25827258  0.02222340     0.10140
C272        C  0.49340905  0.30042075  0.49829701    -0.06980
C273        C  0.52086902  0.29146495  0.47605777    -0.18210
C274        C  0.52686451  0.24087626  0.47696040     0.10170
S275        S  0.43883664  0.26697932  0.05251613    -0.33180
S276        S  0.56054149  0.23223623  0.44669581    -0.33190
H277        H  0.53203066  0.17666136  0.44805598     0.28180
H278        H  0.46779759  0.32242593  0.05125562     0.28180
H279        H  0.46269259  0.17547406  0.04164280     0.18770
H280        H  0.53655924  0.32368412  0.45753765     0.18780
C281        C  0.48952777  0.98168422  0.40630601    -0.07050
C282        C  0.52775087  0.03219618  0.39557969    -0.18180
C283        C  0.53690115  0.05051231  0.36548691     0.10140
C284        C  0.50842949  0.01703465  0.34538687    -0.06980
C285        C  0.47009822  0.96657109  0.35610961    -0.18210
C286        C  0.46087341  0.94829043  0.38621044     0.10170
S287        S  0.58299131  0.11822466  0.35416427    -0.33180
S288        S  0.41438691  0.88077358  0.39755100    -0.33190
H289        H  0.44445371  0.86775809  0.42234350     0.28180
H290        H  0.55257614  0.13100864  0.32947656     0.28180
H291        H  0.54947138  0.05845749  0.41073536     0.18770
H292        H  0.44835974  0.94031910  0.34095567     0.18780
C293        C  0.49005213  0.98338337  0.15568732    -0.07050
C294        C  0.53670732  0.02644675  0.14550521    -0.18180
C295        C  0.54679135  0.04545807  0.11550819     0.10140
C296        C  0.51010328  0.02012994  0.09464404    -0.06980
C297        C  0.46350853  0.97700017  0.10486748    -0.18210
C298        C  0.45344121  0.95800407  0.13482904     0.10170
S299        S  0.60575842  0.10400165  0.10567599    -0.33180
S300        S  0.39460940  0.89925119  0.14462779    -0.33190
H301        H  0.42119487  0.87295520  0.16661898     0.28180
H302        H  0.57907907  0.13061647  0.08390200     0.28180
H303        H  0.56495271  0.04680834  0.16106690     0.18770
H304        H  0.43523479  0.95649771  0.08936130     0.18780
C305        C  0.80145873  0.49359814  0.24616505    -0.07050
C306        C  0.79051883  0.51165707  0.27081951    -0.18180
C307        C  0.74048293  0.51671819  0.27474635     0.10140
C308        C  0.69972743  0.50468026  0.25313607    -0.06980
C309        C  0.71076179  0.48678010  0.22841159    -0.18210
C310        C  0.76083459  0.48173424  0.22450234     0.10170
S311        S  0.73125600  0.53624358  0.30855276    -0.33180
S312        S  0.77047349  0.46261951  0.19063527    -0.33190
H313        H  0.82151066  0.50243834  0.18529748     0.28180
H314        H  0.68122673  0.49504467  0.31458823     0.28180
H315        H  0.82075257  0.52043536  0.28782661     0.18770
H316        H  0.68059028  0.47808005  0.21134285     0.18780
C317        C  0.19897504  0.50297480  0.25119772    -0.07050
C318        C  0.21926932  0.50364952  0.22397104    -0.18180
C319        C  0.27092144  0.50124462  0.22152483     0.10140
C320        C  0.30273219  0.49632501  0.24701393    -0.06980
C321        C  0.28227146  0.49540895  0.27426318    -0.18210
C322        C  0.23065118  0.49789423  0.27669265     0.10170
S323        S  0.29488904  0.50805908  0.18511238    -0.33180
S324        S  0.20655981  0.49130786  0.31306537    -0.33190
H325        H  0.15291930  0.46119151  0.30731475     0.28180
H326        H  0.34807736  0.53968980  0.19068627     0.28180
H327        H  0.19550098  0.50824500  0.20426559     0.18770
H328        H  0.30596915  0.49080271  0.29399514     0.18780
C329        C  0.80180709  0.49566220  0.49621288    -0.07050
C330        C  0.78391065  0.49843664  0.02344753    -0.18180
C331        C  0.73264251  0.50136846  0.02666270     0.10140
C332        C  0.69844118  0.50313383  0.00190425    -0.06980
C333        C  0.71640865  0.50047292  0.47466339    -0.18210
C334        C  0.76766358  0.49753722  0.47145114     0.10170
S335        S  0.71242041  0.49940450  0.06324173    -0.33180
S336        S  0.78792417  0.49948402  0.43487443    -0.33190
H337        H  0.84141095  0.53280807  0.43825421     0.28180
H338        H  0.65913886  0.46550648  0.05994742     0.28180
H339        H  0.80932819  0.49626105  0.04268577     0.18770
H340        H  0.69099409  0.50260845  0.45541854     0.18780
C341        C  0.19937403  0.50443935  0.00208217    -0.07050
C342        C  0.20273550  0.45536494  0.49689268    -0.18180
C343        C  0.25232498  0.44723566  0.49619895     0.10140
C344        C  0.30044997  0.48946466  0.00038815    -0.06980
C345        C  0.29710450  0.53821429  0.00613176    -0.18210
C346        C  0.24752292  0.54658265  0.00643811     0.10170
S347        S  0.25094797  0.38101834  0.49152521    -0.33180
S348        S  0.24905864  0.61301611  0.01077938    -0.33190
H349        H  0.20882359  0.61597072  0.98960777     0.28180
H350        H  0.29256511  0.37857520  0.51185105     0.28180
H351        H  0.16624662  0.42233596  0.49426935     0.18770
H352        H  0.33359443  0.57090039  0.00942842     0.18780
C353        C  0.00878699  0.51783492  0.34230780    -0.07050
C354        C  0.04938336  0.50554364  0.36053429    -0.18180
C355        C  0.04360293  0.49141356  0.39095829     0.10140
C356        C  0.99482781  0.48691083  0.40399404    -0.06980
C357        C  0.95432796  0.49958054  0.38573035    -0.18210
C358        C  0.96123780  0.51629810  0.35540182     0.10170
S359        S  0.09988141  0.47857672  0.41138443    -0.33180
S360        S  0.90906613  0.53799487  0.33521164    -0.33190
H361        H  0.94506850  0.58394350  0.31806456     0.28180
H362        H  0.11049946  0.52390654  0.42510830     0.28180
H363        H  0.08634764  0.50698316  0.35102055     0.18770
H364        H  0.91734524  0.49808671  0.39524032     0.18780
C365        C  0.00854625  0.51738540  0.09326625    -0.07050
C366        C  0.04692282  0.50006634  0.11105768    -0.18180
C367        C  0.03893257  0.48122698  0.14117476     0.10140
C368        C  0.99195928  0.48089313  0.15439329    -0.06980
C369        C  0.95366167  0.49847357  0.13657617    -0.18210
C370        C  0.96163622  0.51721639  0.10642066     0.10170
S371        S  0.08878579  0.45518450  0.16093091    -0.33180
S372        S  0.91177375  0.54302123  0.08641571    -0.33190
H373        H  0.94925087  0.58644769  0.06854213     0.28180
H374        H  0.05073742  0.41011220  0.17746788     0.28180
H375        H  0.08268816  0.49927095  0.10123276     0.18770
H376        H  0.91785750  0.49926680  0.14635810     0.18780
C377        C  0.99377955  0.79994682  0.24903170    -0.07050
C378        C  0.94964059  0.75578606  0.24283047    -0.18180
C379        C  0.95344960  0.70414449  0.24460152     0.10140
C380        C  0.00338187  0.69556484  0.25211414    -0.06980
C381        C  0.04740959  0.73962783  0.25851100    -0.18210
C382        C  0.04352237  0.79115421  0.25696988     0.10170
S383        S  0.89221343  0.65159185  0.23757091    -0.33180
S384        S  0.10420674  0.84299767  0.26546754    -0.33190
H385        H  0.10686206  0.87512661  0.23740908     0.28180
H386        H  0.89371602  0.61864088  0.26497472     0.28180
H387        H  0.91102937  0.76102078  0.23686376     0.18770
H388        H  0.08601737  0.73440485  0.26450633     0.18780
C389        C  0.00753688  0.19631405  0.25605898    -0.07050
C390        C  0.05098587  0.24311550  0.24604020    -0.18180
C391        C  0.04638910  0.29479078  0.24230569     0.10140
C392        C  0.99676416  0.30034682  0.24813303    -0.06980
C393        C  0.95333406  0.25350506  0.25818149    -0.18210
C394        C  0.95843972  0.20193371  0.26281678     0.10170
S395        S  0.10428878  0.35154395  0.22838121    -0.33180
S396        S  0.90171789  0.14562798  0.27884181    -0.33190
H397        H  0.93316304  0.11918752  0.29733173     0.28180
H398        H  0.11488764  0.36973121  0.25539156     0.28180
H399        H  0.08878390  0.23945589  0.24063782     0.18770
H400        H  0.91544776  0.25717459  0.26341943     0.18780
C401        C  0.80132818  0.99522483  0.24885743    -0.07050
C402        C  0.78162568  0.99546883  0.27610710    -0.18180
C403        C  0.72998926  0.99786618  0.27882791     0.10140
C404        C  0.69734417  0.00183399  0.25358630    -0.06980
C405        C  0.71702083  0.00152189  0.22632890    -0.18210
C406        C  0.76865161  0.99903620  0.22361501     0.10170
S407        S  0.70716380  0.99233981  0.31533947    -0.33180
S408        S  0.79141050  0.00414815  0.18713345    -0.33190
H409        H  0.84485507  0.03599118  0.19201205     0.28180
H410        H  0.65389019  0.96011266  0.31040466     0.28180
H411        H  0.80592031  0.99171083  0.29568169     0.18770
H412        H  0.69271906  0.00526212  0.20675616     0.18780
C413        C  0.19741575  0.00130290  0.25494752    -0.07050
C414        C  0.21848570  0.00634209  0.22723260    -0.18180
C415        C  0.27015197  0.00435145  0.22419491     0.10140
C416        C  0.30130618  0.99568771  0.24947167    -0.06980
C417        C  0.28022716  0.99058547  0.27719630    -0.18210
C418        C  0.22847556  0.99242899  0.28022973     0.10170
S419        S  0.29499154  0.01618075  0.18747626    -0.33180
S420        S  0.20327948  0.97988880  0.31691166    -0.33190
H421        H  0.14989773  0.95093940  0.30997118     0.28180
H422        H  0.34858601  0.04481903  0.19419895     0.28180
H423        H  0.19525020  0.01385647  0.20770036     0.18770
H424        H  0.30348356  0.98304986  0.29672070     0.18780
C425        C  0.99191094  0.79772412  0.49998550    -0.07050
C426        C  0.03649048  0.79577905  0.48594297    -0.18180
C427        C  0.04420736  0.74633584  0.48551837     0.10140
C428        C  0.00734419  0.69744370  0.00012652    -0.06980
C429        C  0.96270101  0.69941325  0.01409566    -0.18210
C430        C  0.95500313  0.74882383  0.01453328     0.10170
S431        S  0.10012928  0.74822482  0.46460175    -0.33180
S432        S  0.89899640  0.74685908  0.03540888    -0.33190
H433        H  0.92583103  0.79573256  0.04552071     0.28180
H434        H  0.07325711  0.69925577  0.45459092     0.28180
H435        H  0.06454010  0.83292954  0.47431333     0.18770
H436        H  0.93456612  0.66228950  0.02569084     0.18780
C437        C  0.00204596  0.19514240  0.00220263    -0.07050
C438        C  0.04308553  0.24129451  0.48879217    -0.18180
C439        C  0.03782729  0.29288459  0.48412137     0.10140
C440        C  0.99173042  0.29957714  0.49439814    -0.06980
C441        C  0.95054740  0.25353618  0.00764510    -0.18210
C442        C  0.95477413  0.20162130  0.01125608     0.10170
S443        S  0.08930255  0.34761404  0.46297734    -0.33180
S444        S  0.89971750  0.14592144  0.02898869    -0.33190
H445        H  0.88418650  0.12361876  0.00334801     0.28180
H446        H  0.05330206  0.37291405  0.44847098     0.28180
H447        H  0.07884359  0.23691512  0.48090287     0.18770
H448        H  0.91487350  0.25807227  0.01554173     0.18780
C449        C  0.69718640  0.00299492  0.00285206    -0.07050
C450        C  0.71658170  0.00185341  0.47568739    -0.18180
C451        C  0.76753905  0.99769061  0.47317417     0.10140
C452        C  0.79966286  0.99292217  0.49854049    -0.06980
C453        C  0.78018706  0.99395791  0.02570633    -0.18210
C454        C  0.72925705  0.99812311  0.02821551     0.10170
S455        S  0.79027769  0.00206847  0.43679641    -0.33180
S456        S  0.70648110  0.99371224  0.06459010    -0.33190
H457        H  0.65280195  0.96267884  0.05956348     0.28180
H458        H  0.84383234  0.03355121  0.44173027     0.28180
H459        H  0.69262690  0.00623753  0.45603697     0.18770
H460        H  0.80409732  0.98957992  0.04536715     0.18780
C461        C  0.30051854  0.99540449  0.49870582    -0.07050
C462        C  0.28441000  0.00286819  0.02532800    -0.18180
C463        C  0.23308363  0.00560559  0.02869908     0.10140
C464        C  0.19679646  0.00231498  0.00464090    -0.06980
C465        C  0.21303043  0.99507214  0.47799349    -0.18210
C466        C  0.26432556  0.99235062  0.47462706     0.10170
S467        S  0.21572252  0.01007546  0.06475073    -0.33180
S468        S  0.28177549  0.98810351  0.43854893    -0.33190
H469        H  0.33469744  0.02431901  0.43953193     0.28180
H470        H  0.16313807  0.97304898  0.06403821     0.28180
H471        H  0.31135174  0.00458724  0.04409828     0.18770
H472        H  0.18614024  0.99335010  0.45920116     0.18780
C473        C  0.00655751  0.01424509  0.34695774    -0.07050
C474        C  0.97054186  0.96247259  0.35762578    -0.18180
C475        C  0.96203817  0.94373163  0.38773016     0.10140
C476        C  0.98891324  0.97801556  0.40776994    -0.06980
C477        C  0.02479392  0.02985969  0.39705854    -0.18210
C478        C  0.03332618  0.04855632  0.36697800     0.10170
S479        S  0.91899434  0.87468143  0.39916996    -0.33180
S480        S  0.07653623  0.11754379  0.35550908    -0.33190
H481        H  0.04626980  0.12804892  0.33031609     0.28180
H482        H  0.94970100  0.86405468  0.42415073     0.28180
H483        H  0.95034976  0.93565942  0.34244113     0.18770
H484        H  0.04505447  0.05672573  0.41220685     0.18380
C485        C  0.99112567  0.97989640  0.15783545    -0.07050
C486        C  0.95031154  0.99189198  0.13970679    -0.18180
C487        C  0.95737009  0.00945697  0.10949542     0.10140
C488        C  0.00624494  0.01444741  0.09645366    -0.06980
C489        C  0.04700253  0.00212326  0.11456261    -0.18210
C490        C  0.03982185  0.98424265  0.14481960     0.10170
S491        S  0.90350884  0.02801999  0.08939843    -0.33180
S492        S  0.09331882  0.96488075  0.16502568    -0.33190
H493        H  0.05859890  0.91807749  0.18222953     0.28180
H494        H  0.93874164  0.07587822  0.07340872     0.28180
H495        H  0.91297141  0.98932762  0.14926452     0.18770
H496        H  0.08430580  0.00472399  0.10495432     0.18780
O497        O  0.85951841  0.95573799  0.98088395    -0.81820
O498        O  0.10544446  0.98423143  0.98983742    -0.66510
O499        O  0.95822630  0.95172633  0.50832238    -1.13110
C500        C  0.01013966  0.14164788  0.50598398     1.05070
O501        O  0.13580076  0.03804771  0.52264839    -0.79720
O502        O  0.06352101  0.05438377  0.55524896    -0.67300
Ni503      Ni  0.90175572  0.90730777  0.98682987     1.34870
C504        C  0.01553579  0.03046945  0.56432103     0.83800
O505        O  0.02415271  0.89162428  0.00147475    -0.80260
O506        O  0.93645495  0.85294118  0.99149083    -0.90530
C507        C  0.14311304  0.00857242  0.50580372     0.83370
O508        O  0.93138270  0.93826412  0.94864869    -0.68740
O509        O  0.05747752  0.13975251  0.51225618    -0.88020
C510        C  0.97939017  0.96198284  0.93966375     0.84200
C511        C  0.98365051  0.85067266  0.99768162     1.05770
H512        H  0.04120816  0.05831645  0.97525005     0.37580
O513        O  0.03667381  0.04062780  0.99554413    -1.10680
O514        O  0.97532949  0.01897286  0.54713137    -0.67340
Ni515      Ni  0.96353661  0.02576033  0.50551328     1.26350
O516        O  0.01985448  0.97342950  0.95671937    -0.67560
O517        O  0.97026875  0.10039917  0.50209528    -0.79860
C518        C  0.85244809  0.98500986  0.99790841     0.83590
O519        O  0.88979283  0.00800091  0.51436777    -0.67030
Ni520      Ni  0.09278618  0.08569439  0.51693343     1.27450
Ni521      Ni  0.03140330  0.96647039  0.99838983     1.26060
H522        H  0.95358031  0.93395363  0.52860060     0.38130
O523        O  0.86134109  0.95838761  0.73120895    -0.81820
O524        O  0.10670988  0.98531408  0.74006577    -0.66510
O525        O  0.95990389  0.95414715  0.75873191    -1.13110
C526        C  0.01463964  0.14288911  0.75830601     1.05070
O527        O  0.13761447  0.03657614  0.77395734    -0.79720
O528        O  0.06525508  0.05212414  0.80660976    -0.67300
Ni529      Ni  0.90370143  0.91016075  0.73687179     1.34870
C530        C  0.01684553  0.03028660  0.81516429     0.83800
O531        O  0.02517125  0.89387662  0.75202527    -0.80260
O532        O  0.93851123  0.85599340  0.74096031    -0.90530
C533        C  0.14440688  0.00814355  0.75638715     0.83370
O534        O  0.93347726  0.94165740  0.69881322    -0.68740
O535        O  0.06121099  0.13948152  0.76528268    -0.88020
C536        C  0.98164691  0.96456381  0.68992186     0.84200
C537        C  0.98553336  0.85325363  0.74729033     1.05770
H538        H  0.04481407  0.06064019  0.72627348     0.37580
O539        O  0.03940877  0.04239192  0.74645270    -1.10680
O540        O  0.97672092  0.02112403  0.79776418    -0.67340
Ni541      Ni  0.96617775  0.02838238  0.75595942     1.26350
O542        O  0.02169646  0.97563931  0.70723696    -0.67560
O543        O  0.97457219  0.10317832  0.75266736    -0.79860
C544        C  0.85450531  0.98807223  0.74804481     0.83590
O545        O  0.89213093  0.01172976  0.76421872    -0.67030
Ni546      Ni  0.09562642  0.08512864  0.76884432     1.27450
Ni547      Ni  0.03300840  0.96834622  0.74892329     1.26060
H548        H  0.95496293  0.93625938  0.77898444     0.38130
O549        O  0.86105754  0.45867704  0.97788693    -0.81820
O550        O  0.10767315  0.48426260  0.98766837    -0.66510
O551        O  0.95995136  0.45386860  0.50477416    -1.13110
C552        C  0.01551353  0.64439266  0.50261342     1.05070
O553        O  0.13686031  0.53696134  0.52094287    -0.79720
O554        O  0.06590313  0.55724615  0.55228348    -0.67300
Ni555      Ni  0.90451522  0.41169167  0.98176672     1.34870
C556        C  0.01790185  0.53301810  0.56123106     0.83800
O557        O  0.02523349  0.39244283  0.99892295    -0.80260
O558        O  0.93958845  0.35787503  0.98426302    -0.90530
C559        C  0.14534082  0.50961879  0.50327418     0.83370
O560        O  0.93542379  0.44821812  0.94439270    -0.68740
O561        O  0.06274458  0.64204275  0.50846525    -0.88020
C562        C  0.98409138  0.46877380  0.93600721     0.84200
C563        C  0.98542017  0.35343877  0.99223359     1.05770
H564        H  0.04452137  0.55957980  0.97236668     0.37580
O565        O  0.03964670  0.54199508  0.99267053    -1.10680
O566        O  0.97779369  0.52064371  0.54404137    -0.67340
Ni567      Ni  0.96657011  0.52832064  0.50235582     1.26350
O568        O  0.02352978  0.47460671  0.95382284    -0.67560
O569        O  0.97472013  0.60331918  0.49946159    -0.79860
C570        C  0.85480565  0.48828422  0.99494739     0.83590
O571        O  0.89280528  0.51175657  0.51095672    -0.67030
Ni572      Ni  0.09615979  0.58658299  0.51408798     1.27450
Ni573      Ni  0.03344699  0.46751164  0.99563548     1.26060
H574        H  0.95399969  0.43539573  0.52489611     0.38130
O575        O  0.86012324  0.45387516  0.72911665    -0.81820
O576        O  0.10812108  0.48552300  0.73650351    -0.66510
O577        O  0.96125515  0.45406581  0.75517216    -1.13110
C578        C  0.01207572  0.64263608  0.75322066     1.05070
O579        O  0.14049970  0.54211904  0.76784392    -0.79720
O580        O  0.06646286  0.55237284  0.80132344    -0.67300
Ni581      Ni  0.90545457  0.40872701  0.73353194     1.34870
C582        C  0.01814524  0.53238886  0.81017127     0.83800
O583        O  0.02769343  0.39407574  0.75012971    -0.80260
O584        O  0.94216291  0.35620690  0.73671127    -0.90530
C585        C  0.14625010  0.51059738  0.75186888     0.83370
O586        O  0.93413248  0.44300148  0.69542959    -0.68740
O587        O  0.05826063  0.63928801  0.76128710    -0.88020
C588        C  0.98238778  0.46448274  0.68646761     0.84200
C589        C  0.98868675  0.35363592  0.74454786     1.05770
H590        H  0.04540020  0.56008684  0.72111854     0.37580
O591        O  0.04011831  0.54280485  0.74145849    -1.10680
O592        O  0.97800877  0.52410326  0.79273336    -0.67340
Ni593      Ni  0.96687078  0.52840091  0.75097197     1.26350
O594        O  0.02271397  0.47328698  0.70375181    -0.67560
O595        O  0.97393732  0.60298713  0.74611542    -0.79860
C596        C  0.85453097  0.48598146  0.74477096     0.83590
O597        O  0.89328430  0.51180430  0.75955433    -0.67030
Ni598      Ni  0.09541706  0.58740466  0.76358835     1.27450
Ni599      Ni  0.03451978  0.46857374  0.74539602     1.26060
H600        H  0.95635967  0.43715141  0.77557871     0.38130
O601        O  0.36002792  0.95762603  0.98113395    -0.81820
O602        O  0.60677789  0.98789714  0.98751907    -0.66510
O603        O  0.46035401  0.95618037  0.50719692    -1.13110
C604        C  0.51383245  0.14597695  0.50385848     1.05070
O605        O  0.63838646  0.04151682  0.52025654    -0.79720
O606        O  0.56708375  0.05816260  0.55295715    -0.67300
Ni607      Ni  0.40395146  0.91095388  0.98594448     1.34870
C608        C  0.51927433  0.03586247  0.56242404     0.83800
O609        O  0.52630788  0.89605762  0.00082792    -0.80260
O610        O  0.43986553  0.85754705  0.98954040    -0.90530
C611        C  0.64465344  0.01135985  0.50354828     0.83370
O612        O  0.43215122  0.94338045  0.94753441    -0.68740
O613        O  0.56104189  0.14387606  0.51009601    -0.88020
C614        C  0.48013155  0.96590134  0.93829392     0.84200
C615        C  0.48685054  0.85503281  0.99633087     1.05770
H616        H  0.54313999  0.06215182  0.97311910     0.37580
O617        O  0.53884156  0.04483372  0.99347921    -1.10680
O618        O  0.47846859  0.02524687  0.54548708    -0.67340
Ni619      Ni  0.46589264  0.03048731  0.50386576     1.26350
O620        O  0.52086693  0.97622914  0.95522793    -0.67560
O621        O  0.47325148  0.10524862  0.50009318    -0.79860
C622        C  0.35383489  0.98840018  0.99751173     0.83590
O623        O  0.39214360  0.01329601  0.51294050    -0.67030
Ni624      Ni  0.59581625  0.08954745  0.51459332     1.27450
Ni625      Ni  0.53328239  0.97068214  0.99682241     1.26060
H626        H  0.45603821  0.93890978  0.52756318     0.38130
O627        O  0.36039923  0.95955300  0.73066267    -0.81820
O628        O  0.60663527  0.98620724  0.73809033    -0.66510
O629        O  0.45971326  0.95520457  0.75691732    -1.13110
C630        C  0.51474847  0.14497171  0.75627179     1.05070
O631        O  0.63733240  0.03820662  0.77168749    -0.79720
O632        O  0.56629512  0.05595199  0.80439909    -0.67300
Ni633      Ni  0.40324032  0.91195737  0.73488759     1.34870
C634        C  0.51824254  0.03274571  0.81342121     0.83800
O635        O  0.52477047  0.89445283  0.75011753    -0.80260
O636        O  0.43818091  0.85788421  0.73763663    -0.90530
C637        C  0.64425118  0.00919307  0.75447007     0.83370
O638        O  0.43243734  0.94638236  0.69699901    -0.68740
O639        O  0.56190664  0.14223671  0.76201387    -0.88020
C640        C  0.48050974  0.96734349  0.68784098     0.84200
C641        C  0.48487344  0.85461542  0.74444763     1.05770
H642        H  0.54362645  0.06148889  0.72410514     0.37580
O643        O  0.53898225  0.04355834  0.74435740    -1.10680
O644        O  0.47784670  0.02176710  0.79630934    -0.67340
Ni645      Ni  0.46607727  0.02951521  0.75463215     1.26350
O646        O  0.52108483  0.97592860  0.70503075    -0.67560
O647        O  0.47425876  0.10448760  0.75187385    -0.79860
C648        C  0.35427387  0.98882507  0.74794301     0.83590
O649        O  0.39243796  0.01253479  0.76378355    -0.67030
Ni650      Ni  0.59577983  0.08719830  0.76614382     1.27450
Ni651      Ni  0.53275034  0.96926705  0.74685796     1.26060
H652        H  0.45481847  0.93696072  0.77711042     0.38130
O653        O  0.36269747  0.45897984  0.97969007    -0.81820
O654        O  0.60747430  0.48680004  0.98690147    -0.66510
O655        O  0.46076891  0.45370338  0.50625598    -1.13110
C656        C  0.51322950  0.64320648  0.50580146     1.05070
O657        O  0.63831191  0.53898693  0.52042841    -0.79720
O658        O  0.56708110  0.55454808  0.55375246    -0.67300
Ni659      Ni  0.40363421  0.40953226  0.98529258     1.34870
C660        C  0.51960193  0.52860025  0.56309692     0.83800
O661        O  0.52625365  0.39420887  0.99826865    -0.80260
O662        O  0.43770261  0.35469557  0.99012744    -0.90530
C663        C  0.64520543  0.51006096  0.50314790     0.83370
O664        O  0.43278834  0.43971749  0.94693721    -0.68740
O665        O  0.56064003  0.64101455  0.51145358    -0.88020
C666        C  0.48054158  0.46433869  0.93770522     0.84200
C667        C  0.48535001  0.35310979  0.99535806     1.05770
H668        H  0.54292046  0.56094912  0.97380614     0.37580
O669        O  0.53890914  0.54268957  0.99400578    -1.10680
O670        O  0.47865022  0.51797978  0.54635857    -0.67340
Ni671      Ni  0.46598472  0.52729811  0.50475538     1.26350
O672        O  0.52123207  0.47670426  0.95449352    -0.67560
O673        O  0.47294783  0.60172284  0.50272727    -0.79860
C674        C  0.35438018  0.48464466  0.99835673     0.83590
O675        O  0.39225272  0.50879795  0.51424349    -0.67030
Ni676      Ni  0.59565446  0.58688520  0.51541653     1.27450
Ni677      Ni  0.53363495  0.46877973  0.99596764     1.26060
H678        H  0.45653817  0.43503939  0.52633306     0.38130
O679        O  0.36313378  0.46038348  0.72925449    -0.81820
O680        O  0.60835261  0.48788238  0.73884905    -0.66510
O681        O  0.46128393  0.45582481  0.75696234    -1.13110
C682        C  0.51395827  0.64502480  0.75671622     1.05070
O683        O  0.63980381  0.54170055  0.77148943    -0.79720
O684        O  0.56660609  0.55539782  0.80472631    -0.67300
Ni685      Ni  0.40542484  0.41225103  0.73469476     1.34870
C686        C  0.51829129  0.53269443  0.81341672     0.83800
O687        O  0.52709996  0.39573266  0.74973611    -0.80260
O688        O  0.44001965  0.35787450  0.73859317    -0.90530
C689        C  0.64645909  0.51196052  0.75462430     0.83370
O690        O  0.43571089  0.44535202  0.69686145    -0.68740
O691        O  0.56091683  0.64247837  0.76341488    -0.88020
C692        C  0.48378554  0.47000783  0.68817715     0.84200
C693        C  0.48707073  0.35527208  0.74482902     1.05770
H694        H  0.54545853  0.56299158  0.72512711     0.37580
O695        O  0.54032017  0.54456828  0.74517887    -1.10680
O696        O  0.47796706  0.52267803  0.79619004    -0.67340
Ni697      Ni  0.46699992  0.52997075  0.75452030     1.26350
O698        O  0.52398227  0.47956007  0.70548430    -0.67560
O699        O  0.47428353  0.60465548  0.75141740    -0.79860
C700        C  0.35583153  0.48930577  0.74637675     0.83590
O701        O  0.39301849  0.51247157  0.76288403    -0.67030
Ni702      Ni  0.59638537  0.58882013  0.76685032     1.27450
Ni703      Ni  0.53456257  0.47050233  0.74729519     1.26060
H704        H  0.45616159  0.43762075  0.77715720     0.38130
C705        C  0.48970644  0.48046249  0.90583970    -0.07050
C706        C  0.52622397  0.53202706  0.89523682    -0.18180
C707        C  0.53518296  0.55068593  0.86522140     0.10140
C708        C  0.50816202  0.51658602  0.84517025    -0.06980
C709        C  0.47144253  0.46512367  0.85572255    -0.18210
C710        C  0.46252354  0.44640798  0.88577096     0.10170
S711        S  0.57923240  0.61936905  0.85390243    -0.33180
S712        S  0.41862173  0.37767065  0.89708050    -0.33190
H713        H  0.44954800  0.36620805  0.92180671     0.28180
H714        H  0.54885869  0.63064008  0.82889446     0.28180
H715        H  0.54676503  0.55870653  0.91042590     0.18770
H716        H  0.45096330  0.43851464  0.84049079     0.18780
C717        C  0.49334969  0.48646297  0.65625381    -0.07050
C718        C  0.46381987  0.45047102  0.63795050    -0.18180
C719        C  0.47292247  0.46208205  0.60778758     0.10140
C720        C  0.51142821  0.51164609  0.59512687    -0.06980
C721        C  0.54126454  0.54747753  0.61345750    -0.18210
C722        C  0.53226898  0.53576546  0.64365741     0.10170
S723        S  0.43736404  0.41001494  0.58715062    -0.33180
S724        S  0.56833235  0.58742279  0.66442821    -0.33190
H725        H  0.52085754  0.58596049  0.67718362     0.28180
H726        H  0.48479849  0.41303986  0.57372925     0.28180
H727        H  0.43470214  0.41198636  0.64735979     0.18770
H728        H  0.57033660  0.58598544  0.60404640     0.18780
C729        C  0.49257523  0.80135010  0.74644347    -0.07050
C730        C  0.45113030  0.75421449  0.75847566    -0.18180
C731        C  0.45739804  0.70304126  0.76289785     0.10140
C732        C  0.50579749  0.69815332  0.75438290    -0.06980
C733        C  0.54715925  0.74527758  0.74226874    -0.18210
C734        C  0.54091254  0.79642960  0.73786540     0.10170
S735        S  0.40333554  0.64628007  0.78104471    -0.33180
S736        S  0.59506195  0.85318041  0.71977264    -0.33190
H737        H  0.56120381  0.87900689  0.70310701     0.28180
H738        H  0.43732150  0.62090945  0.79795517     0.28180
H739        H  0.41417971  0.75744553  0.76551521     0.18770
H740        H  0.58413841  0.74208020  0.73524562     0.18780
C741        C  0.50722263  0.19839109  0.75419161    -0.07050
C742        C  0.54796002  0.24528975  0.74119694    -0.18180
C743        C  0.54209510  0.29662327  0.73716514     0.10140
C744        C  0.49485540  0.30195757  0.74698872    -0.06980
C745        C  0.45416112  0.25506864  0.76001872    -0.18210
C746        C  0.46006366  0.20376541  0.76409910     0.10170
S747        S  0.59507577  0.35300762  0.71788878    -0.33180
S748        S  0.40727377  0.14746790  0.78359417    -0.33190
H749        H  0.44231215  0.12228531  0.79953341     0.28180
H750        H  0.56036195  0.37881628  0.70215308     0.28180
H751        H  0.58405120  0.24175578  0.73320688     0.18770
H752        H  0.41807472  0.25860315  0.76801663     0.18780
C753        C  0.50524696  0.69695861  0.50295790    -0.07050
C754        C  0.54419469  0.73791289  0.51534523    -0.18180
C755        C  0.54026990  0.78967885  0.51317204     0.10140
C756        C  0.49532462  0.80156924  0.99874868    -0.06980
C757        C  0.45639375  0.76063025  0.98630529    -0.18210
C758        C  0.46083852  0.70901383  0.98794964     0.10170
S759        S  0.59374994  0.83767660  0.53001343    -0.33180
S760        S  0.41080775  0.66099932  0.96907474    -0.33190
H761        H  0.37321894  0.68882662  0.96389381     0.28180
H762        H  0.61206694  0.87160096  0.50298783     0.28180
H763        H  0.57848615  0.72971334  0.52692195     0.18770
H764        H  0.42258826  0.76945176  0.97456416     0.18780
C765        C  0.50586197  0.19872187  0.50088790    -0.07050
C766        C  0.47841252  0.20769147  0.52312901    -0.18180
C767        C  0.47241132  0.25827064  0.52222502     0.10140
C768        C  0.49341162  0.30042465  0.99829710    -0.06980
C769        C  0.52087644  0.29147040  0.97605947    -0.18210
C770        C  0.52687128  0.24088149  0.97696196     0.10170
S771        S  0.43884556  0.26697937  0.55251945    -0.33180
S772        S  0.56055423  0.23224347  0.94669914    -0.33190
H773        H  0.53204200  0.17666944  0.94805696     0.28180
H774        H  0.46780505  0.32242689  0.55125651     0.28180
H775        H  0.46270038  0.17547374  0.54164575     0.18770
H776        H  0.53657091  0.32369097  0.95754058     0.18780
C777        C  0.48953116  0.98168704  0.90630631    -0.07050
C778        C  0.52775328  0.03219930  0.89557947    -0.18180
C779        C  0.53690263  0.05051474  0.86548658     0.10140
C780        C  0.50843106  0.01703607  0.84538696    -0.06980
C781        C  0.47010076  0.96657222  0.85611022    -0.18210
C782        C  0.46087688  0.94829224  0.88621116     0.10170
S783        S  0.58299150  0.11822748  0.85416325    -0.33180
S784        S  0.41439170  0.88077497  0.89755240    -0.33190
H785        H  0.44445952  0.86776083  0.92234472     0.28180
H786        H  0.55257548  0.13101004  0.82947562     0.28180
H787        H  0.54947369  0.05846136  0.91073482     0.18770
H788        H  0.44836239  0.94031947  0.84095660     0.18780
C789        C  0.49005065  0.98338191  0.65568722    -0.07050
C790        C  0.53670518  0.02644578  0.64550471    -0.18180
C791        C  0.54678857  0.04545640  0.61550760     0.10140
C792        C  0.51010055  0.02012704  0.59464379    -0.06980
C793        C  0.46350644  0.97699684  0.60486762    -0.18210
C794        C  0.45343975  0.95800141  0.63482928     0.10170
S795        S  0.60575470  0.10400075  0.60567481    -0.33180
S796        S  0.39460885  0.89924782  0.64462861    -0.33190
H797        H  0.42119523  0.87295313  0.66661992     0.28180
H798        H  0.57907458  0.13061401  0.58390045     0.28180
H799        H  0.56495050  0.04680827  0.66106614     0.18770
H800        H  0.43523280  0.95649351  0.58936167     0.18780
C801        C  0.80145861  0.49359786  0.74616539    -0.07050
C802        C  0.79051802  0.51165641  0.77081981    -0.18180
C803        C  0.74048200  0.51671761  0.77474625     0.10140
C804        C  0.69972713  0.50468027  0.75313557    -0.06980
C805        C  0.71076218  0.48678052  0.72841113    -0.18210
C806        C  0.76083511  0.48173457  0.72450228     0.10170
S807        S  0.73125399  0.53624220  0.80855273    -0.33180
S808        S  0.77047502  0.46262058  0.69063517    -0.33190
H809        H  0.82151236  0.50243932  0.68529792     0.28180
H810        H  0.68122428  0.49504367  0.81458750     0.28180
H811        H  0.82075128  0.52043427  0.78782719     0.18770
H812        H  0.68059115  0.47808092  0.71134212     0.18780
C813        C  0.19897457  0.50297462  0.75119749    -0.07050
C814        C  0.21926945  0.50364964  0.72397092    -0.18180
C815        C  0.27092165  0.50124469  0.72152500     0.10140
C816        C  0.30273189  0.49632472  0.74701428    -0.06980
C817        C  0.28227061  0.49540842  0.77426342    -0.18210
C818        C  0.23065024  0.49789373  0.77669260     0.10170
S819        S  0.29489001  0.50805951  0.68511268    -0.33180
S820        S  0.20655811  0.49130692  0.81306520    -0.33190
H821        H  0.15291777  0.46119056  0.80731424     0.28180
H822        H  0.34807833  0.53968975  0.69068695     0.28180
H823        H  0.19550152  0.50824538  0.70426533     0.18770
H824        H  0.30596792  0.49080190  0.79399550     0.18780
C825        C  0.80181362  0.49566615  0.99621292    -0.07050
C826        C  0.78390429  0.49843317  0.52344744    -0.18180
C827        C  0.73263640  0.50136570  0.52666250     0.10140
C828        C  0.69843518  0.50313123  0.50190402    -0.06980
C829        C  0.71641466  0.50047559  0.97466360    -0.18210
C830        C  0.76766982  0.49754051  0.97145126     0.10170
S831        S  0.71241433  0.49940230  0.56324147    -0.33180
S832        S  0.78793032  0.49948737  0.93487452    -0.33190
H833        H  0.84141664  0.53281282  0.93825401     0.28180
H834        H  0.65913266  0.46550452  0.55994719     0.28180
H835        H  0.80932169  0.49625725  0.54268572     0.18770
H836        H  0.69099998  0.50261086  0.95541878     0.18780
C837        C  0.19936551  0.50442897  0.50208296    -0.07050
C838        C  0.20274375  0.45537673  0.99688946    -0.18180
C839        C  0.25233285  0.44724680  0.99619558     0.10140
C840        C  0.30044193  0.48945553  0.50038919    -0.06980
C841        C  0.29709611  0.53820655  0.50613045    -0.18210
C842        C  0.24751420  0.54657422  0.50643661     0.10170
S843        S  0.25095486  0.38103089  0.99151864    -0.33180
S844        S  0.24904906  0.61300917  0.51077455    -0.33190
H845        H  0.20881145  0.61595910  0.48960386     0.28180
H846        H  0.29256913  0.37858296  0.01184569     0.28180
H847        H  0.16625481  0.42234914  0.99426432     0.18770
H848        H  0.33358594  0.57089412  0.50942530     0.18780
C849        C  0.00879017  0.51783827  0.84230773    -0.07050
C850        C  0.04938777  0.50554880  0.86053389    -0.18180
C851        C  0.04360831  0.49141914  0.89095796     0.10140
C852        C  0.99483323  0.48691539  0.90399407    -0.06980
C853        C  0.95433219  0.49958334  0.88573072    -0.18210
C854        C  0.96124086  0.51630024  0.85540210     0.10170
S855        S  0.09988754  0.47858339  0.91138379    -0.33180
S856        S  0.90906751  0.53799459  0.83521222    -0.33190
H857        H  0.94506834  0.58394308  0.81806422     0.28180
H858        H  0.11050625  0.52391430  0.92510683     0.28180
H859        H  0.08635208  0.50698914  0.85101984     0.18770
H860        H  0.91734941  0.49808861  0.89524102     0.18780
C861        C  0.00854039  0.51737939  0.59326600    -0.07050
C862        C  0.04691787  0.50006163  0.61105729    -0.18180
C863        C  0.03892884  0.48122354  0.64117451     0.10140
C864        C  0.99195585  0.48088967  0.65439333    -0.06980
C865        C  0.95365719  0.49846859  0.63657634    -0.18210
C866        C  0.96163051  0.51721013  0.60642067     0.10170
S867        S  0.08878321  0.45518265  0.66093053    -0.33180
S868        S  0.91176678  0.54301315  0.58641584    -0.33190
H869        H  0.94924289  0.58643962  0.56854172     0.28180
H870        H  0.05073577  0.41011067  0.67746827     0.28180
H871        H  0.08268310  0.49926637  0.60123217     0.18770
H872        H  0.91785316  0.49926166  0.64635850     0.18780
C873        C  0.99377910  0.79994692  0.74903118    -0.07050
C874        C  0.94964091  0.75578684  0.74282846    -0.18180
C875        C  0.95345010  0.70414544  0.74459912     0.10140
C876        C  0.00338184  0.69556531  0.75211296    -0.06980
C877        C  0.04740877  0.73962767  0.75851128    -0.18210
C878        C  0.04352133  0.79115383  0.75697055     0.10170
S879        S  0.89221500  0.65159382  0.73756598    -0.33180
S880        S  0.10420443  0.84299626  0.76547065    -0.33190
H881        H  0.10686428  0.87512552  0.73741199     0.28180
H882        H  0.89371237  0.61864302  0.76497052     0.28180
H883        H  0.91103021  0.76102203  0.73686069     0.18770
H884        H  0.08601604  0.73440429  0.76450773     0.18780
C885        C  0.00753722  0.19631401  0.75605900    -0.07050
C886        C  0.05098590  0.24311554  0.74603995    -0.18180
C887        C  0.04638909  0.29479073  0.74230576     0.10140
C888        C  0.99676431  0.30034657  0.74813367    -0.06980
C889        C  0.95333458  0.25350471  0.75818251    -0.18210
C890        C  0.95844037  0.20193346  0.76281751     0.10170
S891        S  0.10428852  0.35154398  0.72838102    -0.33180
S892        S  0.90171913  0.14562761  0.77884306    -0.33190
H893        H  0.93316498  0.11918742  0.79733257     0.28180
H894        H  0.11488768  0.36973150  0.75539130     0.28180
H895        H  0.08878374  0.23945607  0.74063711     0.18770
H896        H  0.91544847  0.25717407  0.76342092     0.18780
C897        C  0.80132823  0.99522501  0.74885734    -0.07050
C898        C  0.78162551  0.99546878  0.77610699    -0.18180
C899        C  0.72998899  0.99786593  0.77882773     0.10140
C900        C  0.69734400  0.00183377  0.75358608    -0.06980
C901        C  0.71702087  0.00152190  0.72632870    -0.18210
C902        C  0.76865176  0.99903642  0.72361487     0.10170
S903        S  0.70716329  0.99233927  0.81533928    -0.33180
S904        S  0.79141088  0.00414867  0.68713332    -0.33190
H905        H  0.84485534  0.03599188  0.69201202     0.28180
H906        H  0.65388975  0.96011204  0.81040435     0.28180
H907        H  0.80592004  0.99171073  0.79568162     0.18770
H908        H  0.69271920  0.00526218  0.70675593     0.18780
C909        C  0.19741547  0.00130263  0.75494701    -0.07050
C910        C  0.21848594  0.00634218  0.72723220    -0.18180
C911        C  0.27015241  0.00435186  0.72419475     0.10140
C912        C  0.30130629  0.99568803  0.74947165    -0.06980
C913        C  0.28022672  0.99058539  0.77719618    -0.18210
C914        C  0.22847493  0.99242861  0.78022937     0.10170
S915        S  0.29499266  0.01618165  0.68747621    -0.33180
S916        S  0.20327818  0.97988789  0.81691119    -0.33190
H917        H  0.14989662  0.95093844  0.80997041     0.28180
H918        H  0.34858694  0.04481999  0.69419920     0.28180
H919        H  0.19525073  0.01385665  0.70769985     0.18770
H920        H  0.30348283  0.98304965  0.79672069     0.18780
C921        C  0.99191313  0.79772985  0.99998554    -0.07050
C922        C  0.03649305  0.79578515  0.98594320    -0.18180
C923        C  0.04421069  0.74634224  0.98551886     0.10140
C924        C  0.00734045  0.69743742  0.50012594    -0.06980
C925        C  0.96269786  0.69940748  0.51409541    -0.18210
C926        C  0.95500078  0.74881830  0.51453330     0.10170
S927        S  0.10013311  0.74823172  0.96460247    -0.33180
S928        S  0.89899470  0.74685411  0.53540925    -0.33190
H929        H  0.92582965  0.79572795  0.54552066     0.28180
H930        H  0.07326172  0.69926232  0.95459183     0.28180
H931        H  0.06454254  0.83293574  0.97431356     0.18770
H932        H  0.93456278  0.66228389  0.52569062     0.18780
C933        C  0.00203672  0.19513524  0.50220042    -0.07050
C934        C  0.04309480  0.24130142  0.98879419    -0.18180
C935        C  0.03783666  0.29289161  0.98412314     0.10140
C936        C  0.99174021  0.29958459  0.99440018    -0.06980
C937        C  0.95053729  0.25352849  0.50764252    -0.18210
C938        C  0.95476438  0.20161371  0.51125353     0.10170
S939        S  0.08931091  0.34762027  0.96297799    -0.33180
S940        S  0.89970782  0.14591360  0.52898605    -0.33190
H941        H  0.88417819  0.12360987  0.50334562     0.28180
H942        H  0.05330978  0.37291931  0.94847145     0.28180
H943        H  0.07885245  0.23692162  0.98090463     0.18770
H944        H  0.91486313  0.25806438  0.51553895     0.18780
C945        C  0.69718094  0.00298683  0.50285226    -0.07050
C946        C  0.71658742  0.00186220  0.97568712    -0.18180
C947        C  0.76754505  0.99770010  0.97317383     0.10140
C948        C  0.79966889  0.99293167  0.99854014    -0.06980
C949        C  0.78018114  0.99394876  0.52570664    -0.18210
C950        C  0.72925141  0.99811466  0.52821575     0.10170
S951        S  0.79028391  0.00207862  0.93679604    -0.33180
S952        S  0.70647556  0.99370440  0.56459029    -0.33190
H953        H  0.65279609  0.96267201  0.55956358     0.28180
H954        H  0.84383857  0.03356110  0.94173007     0.28180
H955        H  0.69263253  0.00624616  0.95603673     0.18770
H956        H  0.80409138  0.98957074  0.54536748     0.18780
C957        C  0.30052165  0.99540497  0.99870662    -0.07050
C958        C  0.28440695  0.00286797  0.52532716    -0.18180
C959        C  0.23308040  0.00560491  0.52869829     0.10140
C960        C  0.19679293  0.00231336  0.50464024    -0.06980
C961        C  0.21303384  0.99507349  0.97799417    -0.18210
C962        C  0.26432874  0.99235132  0.97462783     0.10170
S963        S  0.21571943  0.01007532  0.56474987    -0.33180
S964        S  0.28177862  0.98810387  0.93854976    -0.33190
H965        H  0.33470064  0.02431923  0.93953271     0.28180
H966        H  0.16313526  0.97304813  0.56403770     0.28180
H967        H  0.31134881  0.00458741  0.54409740     0.18770
H968        H  0.18614382  0.99335190  0.95920178     0.18780
C969        C  0.00655915  0.01424723  0.84695751    -0.07050
C970        C  0.97054438  0.96247467  0.85762624    -0.18180
C971        C  0.96204155  0.94373491  0.88773075     0.10140
C972        C  0.98891657  0.97802014  0.90776996    -0.06980
C973        C  0.02479638  0.02986432  0.89705786    -0.18210
C974        C  0.03332778  0.04855976  0.86697719     0.10170
S975        S  0.91899883  0.87468456  0.89917146    -0.33180
S976        S  0.07653664  0.11754740  0.85550733    -0.33190
H977        H  0.04626929  0.12805089  0.83031445     0.28180
H978        H  0.94970630  0.86405941  0.92415217     0.28180
H979        H  0.95035234  0.93566054  0.84244203     0.18770
H980        H  0.04505685  0.05673133  0.91220573     0.18380
C981        C  0.99112374  0.97989555  0.65783491    -0.07050
C982        C  0.95030951  0.99189156  0.63970651    -0.18180
C983        C  0.95736731  0.00945567  0.60949504     0.10140
C984        C  0.00624136  0.01444463  0.59645298    -0.06980
C985        C  0.04699913  0.00212032  0.61456169    -0.18210
C986        C  0.03981924  0.98424067  0.64481877     0.10170
S987        S  0.90350633  0.02801951  0.58939821    -0.33180
S988        S  0.09331621  0.96487839  0.66502464    -0.33190
H989        H  0.05859626  0.91807604  0.68222913     0.28180
H990        H  0.93873936  0.07587615  0.57340726     0.28180
H991        H  0.91296995  0.98932815  0.64926451     0.18770
H992        H  0.08430183  0.00472011  0.60495312     0.18780
loop_ 
_geom_bond_atom_site_label_1 
_geom_bond_atom_site_label_2 
_geom_bond_distance 
_geom_bond_site_symmetry_2 
_ccdc_geom_bond_type 
O1           Ni7   1.939       .  S
O1           C22   1.273       .  A
O2          Ni25   1.899       .  S
O2          C507   1.267   1_565  A
O3           H26   0.966       .  S
O3          Ni19   1.906   1_565  S
O3         Ni503   1.916   1_554  S
O3         Ni521   1.906   1_654  S
C4           O21   1.271   1_455  A
C4           O13   1.277       .  A
C4          C437   1.484       .  S
O5          Ni24   1.938       .  S
O5           C11   1.274       .  A
O6          Ni24   1.911       .  S
O6            C8   1.270       .  A
Ni7          O10   1.928       .  S
Ni7          O12   1.908       .  S
Ni7         O499   1.916       .  S
C8           O18   1.270   1_455  A
C8          C488   1.487       .  S
O9          Ni25   1.913       .  S
O9           C15   1.274   1_455  A
O10          C15   1.276       .  A
C11         O498   1.267   1_544  A
C11         C464   1.485       .  S
O12          C14   1.269       .  A
O13         Ni24   1.932       .  S
C14          O20   1.271   1_655  A
C14         C476   1.477       .  S
C15         C425   1.479       .  S
H16          O17   0.966       .  S
O17         Ni25   1.909   1_545  S
O17        Ni515   1.905   1_455  S
O17        Ni520   1.917       .  S
O18         Ni19   1.922       .  S
Ni19         O23   1.895       .  S
Ni19         O21   1.909       .  S
Ni19        O513   1.905   1_654  S
O20         Ni25   1.923       .  S
C22         O519   1.264   1_565  A
C22         C452   1.479       .  S
O23         C518   1.264   1_544  A
Ni24        O513   1.917   1_554  S
Ni25        O499   1.906   1_455  S
O27         Ni33   1.938       .  S
O27          C48   1.273       .  A
O28         Ni51   1.897       .  S
O28          C37   1.264   1_565  A
O29          H52   0.966       .  S
O29         Ni33   1.917       .  S
O29         Ni51   1.906   1_655  S
O29         Ni45   1.905   1_565  S
C30          O47   1.272   1_455  A
C30          O39   1.276       .  A
C30         C389   1.478       .  S
O31         Ni50   1.938       .  S
O31          C37   1.272       .  A
O32         Ni50   1.904       .  S
O32          C34   1.268       .  A
Ni33         O36   1.927       .  S
Ni33         O38   1.906       .  S
C34          O44   1.271   1_455  A
C34         C473   1.475       .  S
O35         Ni51   1.899       .  S
O35          C41   1.268   1_455  A
O36          C41   1.277       .  A
C37         C413   1.476       .  S
O38          C40   1.269       .  A
O39         Ni50   1.926       .  S
C40          O46   1.270   1_655  A
C40         C485   1.485       .  S
C41         C377   1.492       .  S
H42          O43   0.966       .  S
O43         Ni51   1.901   1_545  S
O43         Ni45   1.906   1_455  S
O43         Ni50   1.918       .  S
O44         Ni45   1.926       .  S
Ni45         O49   1.901       .  S
Ni45         O47   1.903       .  S
O46         Ni51   1.923       .  S
C48          O49   1.266   1_565  A
C48         C401   1.481       .  S
O53         Ni59   1.938       .  S
O53          C74   1.273       .  A
O54         Ni77   1.902       .  S
O54         C559   1.267       .  A
O55          H78   0.966       .  S
O55         Ni71   1.910       .  S
O55        Ni555   1.918   1_554  S
O55        Ni573   1.910   1_654  S
C56          O73   1.273   1_454  A
C56          O65   1.275       .  A
C56         C428   1.479       .  S
O57         Ni76   1.933       .  S
O57          C63   1.272       .  A
O58         Ni76   1.909       .  S
O58          C60   1.270       .  A
Ni59         O62   1.931       .  S
Ni59         O64   1.909       .  S
Ni59        O551   1.918       .  S
C60          O70   1.270   1_455  A
C60         C365   1.482       .  S
O61         Ni77   1.911       .  S
O61          C67   1.273   1_455  A
O62          C67   1.276       .  A
C63         O550   1.267   1_554  A
C63         C341   1.482       .  S
O64          C66   1.270       .  A
O65         Ni76   1.927       .  S
C66          O72   1.270   1_655  A
C66         C356   1.490       .  S
C67         C440   1.481       .  S
H68          O69   0.966       .  S
O69         Ni77   1.911       .  S
O69        Ni567   1.906   1_455  S
O69        Ni572   1.917       .  S
O70         Ni71   1.922       .  S
Ni71         O75   1.897       .  S
Ni71         O73   1.912   1_554  S
Ni71        O565   1.906   1_654  S
O72         Ni77   1.925       .  S
C74         O571   1.265       .  A
C74         C329   1.481       .  S
O75         C570   1.265   1_554  A
Ni76        O565   1.917   1_554  S
Ni77        O551   1.910   1_455  S
O79         Ni85   1.936       .  S
O79         C100   1.272       .  A
O80        Ni103   1.895       .  S
O80          C89   1.264       .  A
O81         H104   0.966       .  S
O81         Ni85   1.922       .  S
O81        Ni103   1.908   1_655  S
O81         Ni97   1.905       .  S
C82          O99   1.267   1_455  A
C82          O91   1.276       .  A
C82         C380   1.491       .  S
O83        Ni102   1.934       .  S
O83          C89   1.271       .  A
O84        Ni102   1.900       .  S
O84          C86   1.268       .  A
Ni85         O88   1.929       .  S
Ni85         O90   1.909       .  S
C86          O96   1.272   1_455  A
C86         C353   1.486       .  S
O87        Ni103   1.899       .  S
O87          C93   1.268   1_455  A
O88          C93   1.275       .  A
C89         C317   1.474       .  S
O90          C92   1.270       .  A
O91        Ni102   1.927       .  S
C92          O98   1.271   1_655  A
C92         C368   1.485       .  S
C93         C392   1.480       .  S
H94          O95   0.966       .  S
O95        Ni103   1.903       .  S
O95         Ni97   1.905   1_455  S
O95        Ni102   1.920       .  S
O96         Ni97   1.930       .  S
Ni97        O101   1.893       .  S
Ni97         O99   1.899       .  S
O98        Ni103   1.926       .  S
C100        O101   1.264       .  A
C100        C305   1.487       .  S
O105       Ni111   1.938       .  S
O105        C126   1.274       .  A
O106       Ni129   1.896       .  S
O106        C611   1.264   1_565  A
O107        H130   0.966       .  S
O107       Ni123   1.909   1_565  S
O107       Ni607   1.919   1_554  S
O107       Ni625   1.907   1_554  S
C108        O125   1.271       .  A
C108        O117   1.275       .  A
C108        C269   1.467       .  S
O109       Ni128   1.938       .  S
O109        C115   1.272       .  A
O110       Ni128   1.909       .  S
O110        C112   1.268       .  A
Ni111       O114   1.932       .  S
Ni111       O116   1.910       .  S
Ni111       O603   1.919       .  S
C112        O122   1.273       .  A
C112        C296   1.490       .  S
O113       Ni129   1.904       .  S
O113        C119   1.269       .  A
O114        C119   1.277       .  A
C115        O602   1.264   1_544  A
C115        C449   1.478       .  S
O116        C118   1.269       .  A
O117       Ni128   1.929       .  S
C118        O124   1.271       .  A
C118        C281   1.480       .  S
C119        C260   1.494       .  S
H120        O121   0.966       .  S
O121       Ni129   1.904   1_545  S
O121       Ni619   1.908       .  S
O121       Ni624   1.917       .  S
O122       Ni123   1.926       .  S
Ni123       O127   1.900       .  S
Ni123       O125   1.906       .  S
Ni123       O617   1.908   1_554  S
O124       Ni129   1.924       .  S
C126        O623   1.267   1_565  A
C126        C461   1.485       .  S
O127        C622   1.267   1_544  A
Ni128       O617   1.917   1_554  S
Ni129       O603   1.907       .  S
O131       Ni137   1.937       .  S
O131        C152   1.273       .  A
O132       Ni155   1.901       .  S
O132        C141   1.266   1_565  A
O133        H156   0.966       .  S
O133       Ni137   1.917       .  S
O133       Ni155   1.908       .  S
O133       Ni149   1.909   1_565  S
C134        O151   1.273       .  A
C134        O143   1.276       .  A
C134        C245   1.484       .  S
O135       Ni154   1.938       .  S
O135        C141   1.273       .  A
O136       Ni154   1.910       .  S
O136        C138   1.269       .  A
Ni137       O140   1.933       .  S
Ni137       O142   1.905       .  S
C138        O148   1.270       .  A
C138        C284   1.481       .  S
O139       Ni155   1.906       .  S
O139        C145   1.272       .  A
O140        C145   1.277       .  A
C141        C404   1.481       .  S
O142        C144   1.268       .  A
O143       Ni154   1.930       .  S
C144        O150   1.273       .  A
C144        C293   1.488       .  S
C145        C233   1.482       .  S
H146        O147   0.966       .  S
O147       Ni155   1.908   1_545  S
O147       Ni149   1.907       .  S
O147       Ni154   1.920       .  S
O148       Ni149   1.923       .  S
Ni149       O153   1.899       .  S
Ni149       O151   1.912       .  S
O150       Ni155   1.931       .  S
C152        O153   1.265   1_565  A
C152        C416   1.476       .  S
O157       Ni163   1.935       .  S
O157        C178   1.273       .  A
O158       Ni181   1.899       .  S
O158        C663   1.266       .  A
O159        H182   0.964       .  S
O159       Ni175   1.903       .  S
O159       Ni659   1.909   1_554  S
O159       Ni677   1.901   1_554  S
C160        O177   1.272       .  A
C160        O169   1.277       .  A
C160        C257   1.494       .  S
O161       Ni180   1.938       .  S
O161        C167   1.273       .  A
O162       Ni180   1.910       .  S
O162        C164   1.270       .  A
Ni163       O166   1.926       .  S
Ni163       O168   1.908       .  S
Ni163       O655   1.909       .  S
C164        O174   1.270       .  A
C164        C224   1.480       .  S
O165       Ni181   1.909       .  S
O165        C171   1.273       .  A
O166        C171   1.276       .  A
C167        O654   1.266   1_554  A
C167        C332   1.482       .  S
O168        C170   1.269       .  A
O169       Ni180   1.930       .  S
C170        O176   1.270       .  A
C170        C209   1.474       .  S
C171        C272   1.466       .  S
H172        O173   0.966       .  S
O173       Ni181   1.908       .  S
O173       Ni671   1.908       .  S
O173       Ni676   1.915       .  S
O174       Ni175   1.922       .  S
Ni175       O179   1.900       .  S
Ni175       O177   1.910       .  S
Ni175       O669   1.908   1_554  S
O176       Ni181   1.916       .  S
C178        O675   1.266       .  A
C178        C840   1.481       .  S
O179        C674   1.266   1_554  A
Ni180       O669   1.915   1_554  S
Ni181       O655   1.901       .  S
O183       Ni189   1.934       .  S
O183        C204   1.272       .  A
O184       Ni207   1.893       .  S
O184        C193   1.266       .  A
O185        H208   0.966       .  S
O185       Ni189   1.919       .  S
O185       Ni207   1.906       .  S
O185       Ni201   1.908       .  S
C186        O203   1.272       .  A
C186        O195   1.276       .  A
C186        C236   1.482       .  S
O187       Ni206   1.937       .  S
O187        C193   1.273       .  A
O188       Ni206   1.905       .  S
O188        C190   1.269       .  A
Ni189       O192   1.929       .  S
Ni189       O194   1.907       .  S
C190        O200   1.271       .  A
C190        C212   1.473       .  S
O191       Ni207   1.913       .  S
O191        C197   1.273       .  A
O192        C197   1.276       .  A
C193        C308   1.489       .  S
O194        C196   1.269       .  A
O195       Ni206   1.930       .  S
C196        O202   1.270       .  A
C196        C221   1.479       .  S
C197        C248   1.484       .  S
H198        O199   0.962       .  S
O199       Ni207   1.908       .  S
O199       Ni201   1.903       .  S
O199       Ni206   1.913       .  S
O200       Ni201   1.921       .  S
Ni201       O205   1.897       .  S
Ni201       O203   1.908       .  S
O202       Ni207   1.925       .  S
C204        O205   1.265       .  A
C204        C320   1.476       .  S
C209        C210   1.404       .  A
C209        C214   1.414       .  A
C210        C211   1.397       .  A
C210        H219   1.084       .  S
C211        C212   1.413       .  A
C211        S215   1.804       .  S
C212        C213   1.403       .  A
C213        C214   1.398       .  A
C213        H220   1.084       .  S
C214        S216   1.803       .  S
S215        H218   1.407       .  S
S216        H217   1.408       .  S
C221        C222   1.402       .  A
C221        C226   1.414       .  A
C222        C223   1.397       .  A
C222        H231   1.084       .  S
C223        C224   1.415       .  A
C223        S227   1.796       .  S
C224        C225   1.402       .  A
C225        C226   1.398       .  A
C225        H232   1.084       .  S
C226        S228   1.796       .  S
S227        H230   1.408       .  S
S228        H229   1.408       .  S
C233        C234   1.405       .  A
C233        C238   1.415       .  A
C234        C235   1.400       .  A
C234        H243   1.084       .  S
C235        C236   1.415       .  A
C235        S239   1.804       .  S
C236        C237   1.405       .  A
C237        C238   1.400       .  A
C237        H244   1.084       .  S
C238        S240   1.804       .  S
S239        H242   1.408       .  S
S240        H241   1.407       .  S
C245        C246   1.405       .  A
C245        C250   1.415       .  A
C246        C247   1.401       .  A
C246        H255   1.084       .  S
C247        C248   1.415       .  A
C247        S251   1.804       .  S
C248        C249   1.405       .  A
C249        C250   1.401       .  A
C249        H256   1.084       .  S
C250        S252   1.804       .  S
S251        H254   1.407       .  S
S252        H253   1.408       .  S
C257        C258   1.406       .  A
C257        C758   1.419   1_554  A
C258        C259   1.399       .  A
C258        H267   1.084       .  S
C259        C756   1.419   1_554  A
C259        S263   1.802       .  S
C260        C261   1.407       .  A
C260        C755   1.419       .  A
C261        C262   1.404       .  A
C261        H268   1.082       .  S
C262        C753   1.419       .  A
C262        S264   1.810       .  S
S263        H266   1.408       .  S
S264        H265   1.407       .  S
C269        C270   1.401       .  A
C269        C770   1.411   1_554  A
C270        C271   1.399       .  A
C270        H279   1.084       .  S
C271        C768   1.411   1_554  A
C271        S275   1.804       .  S
C272        C273   1.401       .  A
C272        C767   1.411       .  A
C273        C274   1.399       .  A
C273        H280   1.084       .  S
C274        C765   1.411       .  A
C274        S276   1.804       .  S
S275        H278   1.406       .  S
S276        H277   1.406       .  S
C281        C282   1.404   1_565  A
C281        C286   1.414       .  A
C282        C283   1.400       .  A
C282        H291   1.084       .  S
C283        C284   1.414       .  A
C283        S287   1.803       .  S
C284        C285   1.405   1_545  A
C285        C286   1.400       .  A
C285        H292   1.084       .  S
C286        S288   1.803       .  S
S287        H290   1.408       .  S
S288        H289   1.407       .  S
C293        C294   1.405   1_565  A
C293        C298   1.418       .  A
C294        C295   1.401       .  A
C294        H303   1.084       .  S
C295        C296   1.418       .  A
C295        S299   1.802       .  S
C296        C297   1.406   1_545  A
C297        C298   1.399       .  A
C297        H304   1.084       .  S
C298        S300   1.803       .  S
S299        H302   1.408       .  S
S300        H301   1.408       .  S
C305        C306   1.406       .  A
C305        C310   1.416       .  A
C306        C307   1.398       .  A
C306        H315   1.083       .  S
C307        C308   1.417       .  A
C307        S311   1.802       .  S
C308        C309   1.408       .  A
C309        C310   1.398       .  A
C309        H316   1.084       .  S
C310        S312   1.803       .  S
S311        H314   1.407       .  S
S312        H313   1.408       .  S
C317        C318   1.403       .  A
C317        C322   1.413       .  A
C318        C319   1.398       .  A
C318        H327   1.084       .  S
C319        C320   1.414       .  A
C319        S323   1.803       .  S
C320        C321   1.404       .  A
C321        C322   1.398       .  A
C321        H328   1.084       .  S
C322        S324   1.804       .  S
S323        H326   1.407       .  S
S324        H325   1.407       .  S
C329        C334   1.415       .  A
C329        C826   1.405       .  A
C330        C331   1.399       .  A
C330        C825   1.405   1_554  A
C330        H339   1.084       .  S
C331        C332   1.415       .  A
C331        S335   1.803       .  S
C332        C829   1.405   1_554  A
C333        C334   1.399       .  A
C333        C828   1.405       .  A
C333        H340   1.084       .  S
C334        S336   1.804       .  S
S335        H338   1.407       .  S
S336        H337   1.407       .  S
C341        C346   1.415       .  A
C341        C838   1.404   1_554  A
C342        C343   1.398       .  A
C342        C837   1.404       .  A
C342        H351   1.081       .  S
C343        C840   1.414       .  A
C343        S347   1.803       .  S
C344        C674   1.481   1_554  S
C344        C345   1.405       .  A
C344        C839   1.414   1_554  A
C345        C346   1.399       .  A
C345        H352   1.083       .  S
C346        S348   1.803       .  S
S347        H350   1.407       .  S
S348        H349   1.407   1_554  S
C353        C354   1.405       .  A
C353        C358   1.416   1_455  A
C354        C355   1.397       .  A
C354        H363   1.084       .  S
C355        C356   1.419   1_455  A
C355        S359   1.800       .  S
C356        C357   1.407       .  A
C357        C358   1.400       .  A
C357        H364   1.084       .  S
C358        S360   1.803       .  S
S359        H362   1.408       .  S
S360        H361   1.408       .  S
C365        C366   1.404       .  A
C365        C370   1.416   1_455  A
C366        C367   1.399       .  A
C366        H375   1.084       .  S
C367        C368   1.417   1_455  A
C367        S371   1.803       .  S
C368        C369   1.406       .  A
C369        C370   1.400       .  A
C369        H376   1.084       .  S
C370        S372   1.804       .  S
S371        H374   1.407       .  S
S372        H373   1.407       .  S
C377        C378   1.407       .  A
C377        C382   1.420   1_655  A
C378        C379   1.397       .  A
C378        H387   1.083       .  S
C379        C380   1.419   1_655  A
C379        S383   1.803       .  S
C380        C381   1.407       .  A
C381        C382   1.396       .  A
C381        H388   1.083       .  S
C382        S384   1.804       .  S
S383        H386   1.408       .  S
S384        H385   1.408       .  S
C389        C390   1.404       .  A
C389        C394   1.415   1_455  A
C390        C391   1.397       .  A
C390        H399   1.084       .  S
C391        C392   1.415   1_455  A
C391        S395   1.800       .  S
C392        C393   1.405       .  A
C393        C394   1.397       .  A
C393        H400   1.084       .  S
C394        S396   1.804       .  S
S395        H398   1.408       .  S
S396        H397   1.408       .  S
C401        C402   1.404       .  A
C401        C406   1.415       .  A
C402        C403   1.399       .  A
C402        H411   1.084       .  S
C403        C404   1.415   1_565  A
C403        S407   1.803       .  S
C404        C405   1.405       .  A
C405        C406   1.400   1_545  A
C405        H412   1.084       .  S
C406        S408   1.804   1_565  S
S407        H410   1.407       .  S
S408        H409   1.407       .  S
C413        C414   1.404       .  A
C413        C418   1.413   1_545  A
C414        C415   1.399       .  A
C414        H423   1.084       .  S
C415        C416   1.413   1_545  A
C415        S419   1.804       .  S
C416        C417   1.404       .  A
C417        C418   1.399       .  A
C417        H424   1.084       .  S
C418        S420   1.803       .  S
S419        H422   1.407       .  S
S420        H421   1.407       .  S
C425        C426   1.404   1_655  A
C425        C926   1.414       .  A
C426        C427   1.400       .  A
C426        H435   1.084       .  S
C427        C924   1.415       .  A
C427        S431   1.803       .  S
C428        C429   1.404   1_455  A
C428        C923   1.415   1_554  A
C429        C430   1.399       .  A
C429        H436   1.084       .  S
C430        C921   1.414   1_554  A
C430        S432   1.804       .  S
S431        H434   1.407       .  S
S432        H433   1.407       .  S
C437        C442   1.416   1_455  A
C437        C934   1.405   1_554  A
C438        C439   1.399       .  A
C438        C933   1.405       .  A
C438        H447   1.084       .  S
C439        C440   1.413   1_455  A
C439        S443   1.799       .  S
C440        C937   1.403       .  A
C441        C442   1.400       .  A
C441        C936   1.403   1_554  A
C441        H448   1.084       .  S
C442        S444   1.798       .  S
S443        H446   1.405       .  S
S444        H445   1.407       .  S
C449        C454   1.414   1_545  A
C449        C946   1.404   1_554  A
C450        C451   1.399   1_545  A
C450        C945   1.404       .  A
C450        H459   1.084       .  S
C451        C452   1.414       .  A
C451        S455   1.803   1_565  S
C452        C949   1.404       .  A
C453        C454   1.398       .  A
C453        C948   1.404   1_554  A
C453        H460   1.084       .  S
C454        S456   1.803       .  S
S455        H458   1.407       .  S
S456        H457   1.407       .  S
C461        C466   1.416       .  A
C461        C958   1.405   1_565  A
C462        C463   1.400       .  A
C462        C957   1.405   1_544  A
C462        H471   1.084       .  S
C463        C464   1.416       .  A
C463        S467   1.803       .  S
C464        C961   1.405   1_544  A
C465        C466   1.399       .  A
C465        C960   1.405   1_565  A
C465        H472   1.084       .  S
C466        S468   1.803       .  S
S467        H470   1.407   1_545  S
S468        H469   1.407   1_565  S
C473        C474   1.403   1_445  A
C473        C478   1.413       .  A
C474        C475   1.400       .  A
C474        H483   1.084       .  S
C475        C476   1.414       .  A
C475        S479   1.803       .  S
C476        C477   1.403   1_665  A
C477        C478   1.398       .  A
C477        H484   1.084       .  S
C478        S480   1.804       .  S
S479        H482   1.407       .  S
S480        H481   1.407       .  S
C485        C486   1.404       .  A
C485        C490   1.417   1_655  A
C486        C487   1.397   1_565  A
C486        H495   1.084       .  S
C487        C488   1.417   1_655  A
C487        S491   1.801       .  S
C488        C489   1.406       .  A
C489        C490   1.400   1_545  A
C489        H496   1.084       .  S
C490        S492   1.804       .  S
S491        H494   1.405       .  S
S492        H493   1.408       .  S
O497       Ni503   1.939       .  S
O497        C518   1.273       .  A
O498       Ni521   1.899       .  S
O499        H522   0.966       .  S
O499       Ni515   1.906   1_565  S
C500        O517   1.271   1_455  A
C500        O509   1.277       .  A
C500        C933   1.484       .  S
O501       Ni520   1.938       .  S
O501        C507   1.274       .  A
O502       Ni520   1.911       .  S
O502        C504   1.270       .  A
Ni503       O506   1.928       .  S
Ni503       O508   1.908       .  S
C504        O514   1.270   1_455  A
C504        C984   1.487       .  S
O505       Ni521   1.913   1_554  S
O505        C511   1.274   1_454  A
O506        C511   1.276       .  A
C507        C960   1.485       .  S
O508        C510   1.269       .  A
O509       Ni520   1.932       .  S
C510        O516   1.271   1_655  A
C510        C972   1.477       .  S
C511        C921   1.479       .  S
H512        O513   0.966       .  S
O513       Ni521   1.909   1_545  S
O514       Ni515   1.922       .  S
Ni515       O519   1.895       .  S
Ni515       O517   1.909       .  S
O516       Ni521   1.923       .  S
C518        C948   1.479       .  S
O523       Ni529   1.938       .  S
O523        C544   1.273       .  A
O524       Ni547   1.897       .  S
O524        C533   1.264   1_565  A
O525        H548   0.966       .  S
O525       Ni529   1.917       .  S
O525       Ni547   1.906   1_655  S
O525       Ni541   1.905   1_565  S
C526        O543   1.272   1_455  A
C526        O535   1.276       .  A
C526        C885   1.478       .  S
O527       Ni546   1.938       .  S
O527        C533   1.272       .  A
O528       Ni546   1.904       .  S
O528        C530   1.268       .  A
Ni529       O532   1.927       .  S
Ni529       O534   1.906       .  S
C530        O540   1.271   1_455  A
C530        C969   1.475       .  S
O531       Ni547   1.899       .  S
O531        C537   1.268   1_455  A
O532        C537   1.277       .  A
C533        C909   1.476       .  S
O534        C536   1.269       .  A
O535       Ni546   1.926       .  S
C536        O542   1.270   1_655  A
C536        C981   1.485       .  S
C537        C873   1.491       .  S
H538        O539   0.966       .  S
O539       Ni547   1.901   1_545  S
O539       Ni541   1.906   1_455  S
O539       Ni546   1.918       .  S
O540       Ni541   1.926       .  S
Ni541       O545   1.901       .  S
Ni541       O543   1.903       .  S
O542       Ni547   1.923       .  S
C544        O545   1.266   1_565  A
C544        C897   1.481       .  S
O549       Ni555   1.938       .  S
O549        C570   1.273       .  A
O550       Ni573   1.902       .  S
O551        H574   0.966       .  S
O551       Ni567   1.910       .  S
C552        O569   1.273   1_455  A
C552        O561   1.275       .  A
C552        C924   1.479       .  S
O553       Ni572   1.933       .  S
O553        C559   1.272       .  A
O554       Ni572   1.909       .  S
O554        C556   1.270       .  A
Ni555       O558   1.931       .  S
Ni555       O560   1.909       .  S
C556        O566   1.270   1_455  A
C556        C861   1.482       .  S
O557       Ni573   1.911       .  S
O557        C563   1.273   1_455  A
O558        C563   1.276       .  A
C559        C837   1.482       .  S
O560        C562   1.270       .  A
O561       Ni572   1.927       .  S
C562        O568   1.270   1_655  A
C562        C852   1.490       .  S
C563        C936   1.481       .  S
H564        O565   0.966       .  S
O565       Ni573   1.911       .  S
O566       Ni567   1.922       .  S
Ni567       O571   1.897       .  S
Ni567       O569   1.912       .  S
O568       Ni573   1.925       .  S
C570        C825   1.481       .  S
O575       Ni581   1.936       .  S
O575        C596   1.272       .  A
O576       Ni599   1.895       .  S
O576        C585   1.264       .  A
O577        H600   0.966       .  S
O577       Ni581   1.922       .  S
O577       Ni599   1.908   1_655  S
O577       Ni593   1.905       .  S
C578        O595   1.267   1_455  A
C578        O587   1.276       .  A
C578        C876   1.491       .  S
O579       Ni598   1.934       .  S
O579        C585   1.271       .  A
O580       Ni598   1.900       .  S
O580        C582   1.268       .  A
Ni581       O584   1.929       .  S
Ni581       O586   1.909       .  S
C582        O592   1.272   1_455  A
C582        C849   1.486       .  S
O583       Ni599   1.899       .  S
O583        C589   1.268   1_455  A
O584        C589   1.275       .  A
C585        C813   1.474       .  S
O586        C588   1.270       .  A
O587       Ni598   1.927       .  S
C588        O594   1.271   1_655  A
C588        C864   1.485       .  S
C589        C888   1.480       .  S
H590        O591   0.966       .  S
O591       Ni599   1.903       .  S
O591       Ni593   1.905   1_455  S
O591       Ni598   1.920       .  S
O592       Ni593   1.930       .  S
Ni593       O597   1.893       .  S
Ni593       O595   1.899       .  S
O594       Ni599   1.926       .  S
C596        O597   1.264       .  A
C596        C801   1.487       .  S
O601       Ni607   1.938       .  S
O601        C622   1.274       .  A
O602       Ni625   1.896       .  S
O603        H626   0.966       .  S
O603       Ni619   1.909   1_565  S
C604        O621   1.271       .  A
C604        O613   1.275       .  A
C604        C765   1.467       .  S
O605       Ni624   1.938       .  S
O605        C611   1.272       .  A
O606       Ni624   1.909       .  S
O606        C608   1.268       .  A
Ni607       O610   1.932       .  S
Ni607       O612   1.910       .  S
C608        O618   1.273       .  A
C608        C792   1.490       .  S
O609       Ni625   1.904   1_554  S
O609        C615   1.269   1_554  A
O610        C615   1.277       .  A
C611        C945   1.478       .  S
O612        C614   1.269       .  A
O613       Ni624   1.929       .  S
C614        O620   1.271       .  A
C614        C777   1.480       .  S
C615        C756   1.494       .  S
H616        O617   0.966       .  S
O617       Ni625   1.904   1_545  S
O618       Ni619   1.926       .  S
Ni619       O623   1.900       .  S
Ni619       O621   1.906       .  S
O620       Ni625   1.924       .  S
C622        C957   1.485       .  S
O627       Ni633   1.937       .  S
O627        C648   1.273       .  A
O628       Ni651   1.901       .  S
O628        C637   1.266   1_565  A
O629        H652   0.966       .  S
O629       Ni633   1.917       .  S
O629       Ni651   1.908       .  S
O629       Ni645   1.909   1_565  S
C630        O647   1.273       .  A
C630        O639   1.276       .  A
C630        C741   1.484       .  S
O631       Ni650   1.938       .  S
O631        C637   1.273       .  A
O632       Ni650   1.910       .  S
O632        C634   1.269       .  A
Ni633       O636   1.933       .  S
Ni633       O638   1.905       .  S
C634        O644   1.270       .  A
C634        C780   1.481       .  S
O635       Ni651   1.906       .  S
O635        C641   1.272       .  A
O636        C641   1.277       .  A
C637        C900   1.481       .  S
O638        C640   1.268       .  A
O639       Ni650   1.930       .  S
C640        O646   1.273       .  A
C640        C789   1.488       .  S
C641        C729   1.482       .  S
H642        O643   0.966       .  S
O643       Ni651   1.908   1_545  S
O643       Ni645   1.907       .  S
O643       Ni650   1.920       .  S
O644       Ni645   1.923       .  S
Ni645       O649   1.899       .  S
Ni645       O647   1.912       .  S
O646       Ni651   1.931       .  S
C648        O649   1.265   1_565  A
C648        C912   1.476       .  S
O653       Ni659   1.935       .  S
O653        C674   1.273       .  A
O654       Ni677   1.899       .  S
O655        H678   0.964       .  S
O655       Ni671   1.903       .  S
C656        O673   1.272       .  A
C656        O665   1.277       .  A
C656        C753   1.494       .  S
O657       Ni676   1.938       .  S
O657        C663   1.273       .  A
O658       Ni676   1.910       .  S
O658        C660   1.270       .  A
Ni659       O662   1.926       .  S
Ni659       O664   1.908       .  S
C660        O670   1.270       .  A
C660        C720   1.480       .  S
O661       Ni677   1.909       .  S
O661        C667   1.273       .  A
O662        C667   1.276       .  A
C663        C828   1.482       .  S
O664        C666   1.269       .  A
O665       Ni676   1.930       .  S
C666        O672   1.270       .  A
C666        C705   1.474       .  S
C667        C768   1.466       .  S
H668        O669   0.966       .  S
O669       Ni677   1.908       .  S
O670       Ni671   1.922       .  S
Ni671       O675   1.900       .  S
Ni671       O673   1.910       .  S
O672       Ni677   1.916       .  S
O679       Ni685   1.934       .  S
O679        C700   1.272       .  A
O680       Ni703   1.893       .  S
O680        C689   1.266       .  A
O681        H704   0.966       .  S
O681       Ni685   1.919       .  S
O681       Ni703   1.906       .  S
O681       Ni697   1.908       .  S
C682        O699   1.272       .  A
C682        O691   1.276       .  A
C682        C732   1.482       .  S
O683       Ni702   1.937       .  S
O683        C689   1.273       .  A
O684       Ni702   1.905       .  S
O684        C686   1.269       .  A
Ni685       O688   1.929       .  S
Ni685       O690   1.907       .  S
C686        O696   1.271       .  A
C686        C708   1.473       .  S
O687       Ni703   1.913       .  S
O687        C693   1.273       .  A
O688        C693   1.276       .  A
C689        C804   1.489       .  S
O690        C692   1.269       .  A
O691       Ni702   1.930       .  S
C692        O698   1.270       .  A
C692        C717   1.479       .  S
C693        C744   1.484       .  S
H694        O695   0.962       .  S
O695       Ni703   1.908       .  S
O695       Ni697   1.903       .  S
O695       Ni702   1.913       .  S
O696       Ni697   1.921       .  S
Ni697       O701   1.897       .  S
Ni697       O699   1.908       .  S
O698       Ni703   1.925       .  S
C700        O701   1.265       .  A
C700        C816   1.476       .  S
C705        C706   1.404       .  A
C705        C710   1.414       .  A
C706        C707   1.397       .  A
C706        H715   1.084       .  S
C707        C708   1.413       .  A
C707        S711   1.804       .  S
C708        C709   1.403       .  A
C709        C710   1.398       .  A
C709        H716   1.084       .  S
C710        S712   1.803       .  S
S711        H714   1.407       .  S
S712        H713   1.408       .  S
C717        C718   1.402       .  A
C717        C722   1.414       .  A
C718        C719   1.397       .  A
C718        H727   1.084       .  S
C719        C720   1.415       .  A
C719        S723   1.796       .  S
C720        C721   1.402       .  A
C721        C722   1.398       .  A
C721        H728   1.084       .  S
C722        S724   1.796       .  S
S723        H726   1.408       .  S
S724        H725   1.408       .  S
C729        C730   1.405       .  A
C729        C734   1.415       .  A
C730        C731   1.400       .  A
C730        H739   1.084       .  S
C731        C732   1.415       .  A
C731        S735   1.804       .  S
C732        C733   1.405       .  A
C733        C734   1.400       .  A
C733        H740   1.084       .  S
C734        S736   1.804       .  S
S735        H738   1.408       .  S
S736        H737   1.407       .  S
C741        C742   1.405       .  A
C741        C746   1.415       .  A
C742        C743   1.401       .  A
C742        H751   1.084       .  S
C743        C744   1.415       .  A
C743        S747   1.804       .  S
C744        C745   1.405       .  A
C745        C746   1.401       .  A
C745        H752   1.084       .  S
C746        S748   1.804       .  S
S747        H750   1.407       .  S
S748        H749   1.408       .  S
C753        C754   1.406       .  A
C754        C755   1.399       .  A
C754        H763   1.084       .  S
C755        S759   1.802       .  S
C756        C757   1.407       .  A
C757        C758   1.404       .  A
C757        H764   1.082       .  S
C758        S760   1.810       .  S
S759        H762   1.408       .  S
S760        H761   1.407       .  S
C765        C766   1.401       .  A
C766        C767   1.399       .  A
C766        H775   1.084       .  S
C767        S771   1.804       .  S
C768        C769   1.401       .  A
C769        C770   1.399       .  A
C769        H776   1.084       .  S
C770        S772   1.804       .  S
S771        H774   1.406       .  S
S772        H773   1.406       .  S
C777        C778   1.404   1_565  A
C777        C782   1.414       .  A
C778        C779   1.400       .  A
C778        H787   1.084       .  S
C779        C780   1.414       .  A
C779        S783   1.803       .  S
C780        C781   1.405   1_545  A
C781        C782   1.400       .  A
C781        H788   1.084       .  S
C782        S784   1.803       .  S
S783        H786   1.408       .  S
S784        H785   1.407       .  S
C789        C790   1.405   1_565  A
C789        C794   1.418       .  A
C790        C791   1.401       .  A
C790        H799   1.084       .  S
C791        C792   1.418       .  A
C791        S795   1.802       .  S
C792        C793   1.406   1_545  A
C793        C794   1.399       .  A
C793        H800   1.084       .  S
C794        S796   1.803       .  S
S795        H798   1.408       .  S
S796        H797   1.408       .  S
C801        C802   1.406       .  A
C801        C806   1.416       .  A
C802        C803   1.398       .  A
C802        H811   1.083       .  S
C803        C804   1.417       .  A
C803        S807   1.802       .  S
C804        C805   1.408       .  A
C805        C806   1.398       .  A
C805        H812   1.084       .  S
C806        S808   1.803       .  S
S807        H810   1.407       .  S
S808        H809   1.408       .  S
C813        C814   1.403       .  A
C813        C818   1.413       .  A
C814        C815   1.398       .  A
C814        H823   1.084       .  S
C815        C816   1.414       .  A
C815        S819   1.803       .  S
C816        C817   1.404       .  A
C817        C818   1.398       .  A
C817        H824   1.084       .  S
C818        S820   1.804       .  S
S819        H822   1.407       .  S
S820        H821   1.407       .  S
C825        C830   1.415       .  A
C826        C827   1.399       .  A
C826        H835   1.084       .  S
C827        C828   1.415       .  A
C827        S831   1.803       .  S
C829        C830   1.399       .  A
C829        H836   1.084       .  S
C830        S832   1.804       .  S
S831        H834   1.407       .  S
S832        H833   1.407       .  S
C837        C842   1.415       .  A
C838        C839   1.398       .  A
C838        H847   1.081       .  S
C839        S843   1.803       .  S
C840        C841   1.405       .  A
C841        C842   1.399       .  A
C841        H848   1.083       .  S
C842        S844   1.803       .  S
S843        H846   1.407   1_556  S
S844        H845   1.407       .  S
C849        C850   1.405       .  A
C849        C854   1.416   1_455  A
C850        C851   1.397       .  A
C850        H859   1.084       .  S
C851        C852   1.419   1_455  A
C851        S855   1.800       .  S
C852        C853   1.407       .  A
C853        C854   1.400       .  A
C853        H860   1.084       .  S
C854        S856   1.803       .  S
S855        H858   1.408       .  S
S856        H857   1.408       .  S
C861        C862   1.404       .  A
C861        C866   1.416   1_455  A
C862        C863   1.399       .  A
C862        H871   1.084       .  S
C863        C864   1.417   1_455  A
C863        S867   1.803       .  S
C864        C865   1.406       .  A
C865        C866   1.400       .  A
C865        H872   1.084       .  S
C866        S868   1.804       .  S
S867        H870   1.407       .  S
S868        H869   1.407       .  S
C873        C874   1.407       .  A
C873        C878   1.420   1_655  A
C874        C875   1.397       .  A
C874        H883   1.083       .  S
C875        C876   1.419   1_655  A
C875        S879   1.803       .  S
C876        C877   1.407       .  A
C877        C878   1.396       .  A
C877        H884   1.083       .  S
C878        S880   1.804       .  S
S879        H882   1.408       .  S
S880        H881   1.408       .  S
C885        C886   1.404       .  A
C885        C890   1.415   1_455  A
C886        C887   1.397       .  A
C886        H895   1.084       .  S
C887        C888   1.415   1_455  A
C887        S891   1.800       .  S
C888        C889   1.405       .  A
C889        C890   1.397       .  A
C889        H896   1.084       .  S
C890        S892   1.804       .  S
S891        H894   1.408       .  S
S892        H893   1.408       .  S
C897        C898   1.404       .  A
C897        C902   1.415       .  A
C898        C899   1.399       .  A
C898        H907   1.084       .  S
C899        C900   1.415   1_565  A
C899        S903   1.803       .  S
C900        C901   1.405       .  A
C901        C902   1.400   1_545  A
C901        H908   1.084       .  S
C902        S904   1.804   1_565  S
S903        H906   1.407       .  S
S904        H905   1.407       .  S
C909        C910   1.404       .  A
C909        C914   1.413   1_545  A
C910        C911   1.399       .  A
C910        H919   1.084       .  S
C911        C912   1.413   1_545  A
C911        S915   1.804       .  S
C912        C913   1.404       .  A
C913        C914   1.399       .  A
C913        H920   1.084       .  S
C914        S916   1.803       .  S
S915        H918   1.407       .  S
S916        H917   1.407       .  S
C921        C922   1.404   1_655  A
C922        C923   1.400       .  A
C922        H931   1.084       .  S
C923        S927   1.803       .  S
C924        C925   1.404   1_455  A
C925        C926   1.399       .  A
C925        H932   1.084       .  S
C926        S928   1.804       .  S
S927        H930   1.407       .  S
S928        H929   1.407       .  S
C933        C938   1.416   1_455  A
C934        C935   1.399       .  A
C934        H943   1.084       .  S
C935        C936   1.413   1_455  A
C935        S939   1.799       .  S
C937        C938   1.400       .  A
C937        H944   1.084       .  S
C938        S940   1.798       .  S
S939        H942   1.405       .  S
S940        H941   1.407       .  S
C945        C950   1.414   1_545  A
C946        C947   1.399   1_545  A
C946        H955   1.084       .  S
C947        C948   1.414       .  A
C947        S951   1.803   1_565  S
C949        C950   1.398       .  A
C949        H956   1.084       .  S
C950        S952   1.803       .  S
S951        H954   1.407       .  S
S952        H953   1.407       .  S
C957        C962   1.416       .  A
C958        C959   1.400       .  A
C958        H967   1.084       .  S
C959        C960   1.416       .  A
C959        S963   1.803       .  S
C961        C962   1.399       .  A
C961        H968   1.084       .  S
C962        S964   1.803       .  S
S963        H966   1.407   1_545  S
S964        H965   1.407   1_565  S
C969        C970   1.403   1_445  A
C969        C974   1.413       .  A
C970        C971   1.400       .  A
C970        H979   1.084       .  S
C971        C972   1.414       .  A
C971        S975   1.803       .  S
C972        C973   1.403   1_665  A
C973        C974   1.398       .  A
C973        H980   1.084       .  S
C974        S976   1.804       .  S
S975        H978   1.407       .  S
S976        H977   1.407       .  S
C981        C982   1.404       .  A
C981        C986   1.417   1_655  A
C982        C983   1.397   1_565  A
C982        H991   1.084       .  S
C983        C984   1.417   1_655  A
C983        S987   1.801       .  S
C984        C985   1.406       .  A
C985        C986   1.400   1_545  A
C985        H992   1.084       .  S
C986        S988   1.804       .  S
S987        H990   1.405       .  S
S988        H989   1.408       .  S
