geometry optimzed in LAMMPS
_audit_creation_date              2020-11-30 
_audit_creation_method            'lammps2cif' 
_symmetry_space_group_name_H-M    'P1' 
_symmetry_Int_Tables_number       1 
_symmetry_cell_setting            triclinic 
loop_ 
_symmetry_equiv_pos_as_xyz 
  x,y,z 
_cell_length_a                    31.53861547 
_cell_length_b                    31.540483776218895 
_cell_length_c                    31.5267455439129 
_cell_angle_alpha                 89.99978240058358 
_cell_angle_beta                  90.00087609983062 
_cell_angle_gamma                 90.0027458136107 
loop_ 
_atom_site_label 
_atom_site_type_symbol 
_atom_site_fract_x 
_atom_site_fract_y 
_atom_site_fract_z 
_atom_site_charge 
C1          C  0.42433540  0.36774747  0.41983381     0.80200
N2          N  0.38818784  0.38243596  0.43813770    -0.78100
C3          C  0.36912410  0.41796236  0.42349932     0.82600
N4          N  0.38509639  0.43802118  0.38898654    -0.78100
C5          C  0.42102756  0.42356802  0.37022535     0.82700
N6          N  0.44071184  0.38831411  0.38562928    -0.79800
C7          C  0.36913254  0.27685483  0.17350425     0.80200
N8          N  0.38819686  0.31238263  0.18814150    -0.78100
C9          C  0.42434367  0.32707394  0.16983611     0.82600
N10         N  0.44071868  0.30650885  0.13563102    -0.78100
C11         C  0.42103371  0.27125275  0.12022875     0.82700
N12         N  0.38510316  0.25679698  0.13899150    -0.79800
Zn13       Zn  0.41849639  0.24830213  0.48507341     1.49700
Zn14       Zn  0.00870147  0.25752777  0.43669079     1.49400
Zn15       Zn  0.99966354  0.20829685  0.02659107     1.49100
Zn16       Zn  0.46036539  0.16729723  0.44481345     1.49500
O17         O  0.47223406  0.22092534  0.47281614    -1.84100
O18         O  0.41790324  0.30527062  0.45894786    -0.74800
O19         O  0.06395907  0.27145235  0.46835544    -0.74600
O20         O  0.47023364  0.23555713  0.07640378    -0.74100
O21         O  0.47732577  0.31298857  0.42168644    -0.74800
O22         O  0.40970506  0.25763334  0.04777526    -0.74400
O23         O  0.05734261  0.23240735  0.02679404    -0.75000
O24         O  0.48772760  0.11784515  0.47406075    -0.74400
O25         O  0.02383656  0.22632390  0.38153549    -0.75100
O26         O  0.00755782  0.14575675  0.03570059    -0.74500
O27         O  0.48551363  0.16742506  0.38775006    -0.75000
O28         O  0.39799016  0.15717389  0.43631004    -0.74900
O29         O  0.36905015  0.21742865  0.45875135    -0.74700
C30         C  0.44135135  0.32678510  0.43428538     0.77100
C31         C  0.07847926  0.25752661  0.50355227     0.77600
C32         C  0.43424539  0.25338397  0.07954911     0.76600
C33         C  0.50431081  0.11437055  0.01057636     0.78100
C34         C  0.01070581  0.19088194  0.36697649     0.78100
C35         C  0.36607277  0.18134675  0.44102182     0.77100
C36         C  0.32538079  0.16796034  0.42350352     0.80200
N37         N  0.30631535  0.13243316  0.43814090    -0.78100
C38         C  0.27016778  0.11774296  0.41983476     0.82600
N39         N  0.25379356  0.13830839  0.38562880    -0.78100
C40         C  0.27347983  0.17356375  0.37022666     0.82700
N41         N  0.30941068  0.18801847  0.38899024    -0.79800
Zn42       Zn  0.27600856  0.99829680  0.48507051     1.49700
Zn43       Zn  0.18579969  0.00751989  0.43668891     1.49400
Zn44       Zn  0.23414012  0.41729220  0.44481750     1.49100
Zn45       Zn  0.19483357  0.45829843  0.02658922     1.49500
O46         O  0.22226749  0.47092075  0.47281568    -1.84100
O47         O  0.27659845  0.05526669  0.45894858    -0.74800
O48         O  0.17067231  0.47631318  0.38153404    -0.74600
O49         O  0.29651517  0.40717008  0.43631347    -0.74100
O50         O  0.21717650  0.06298079  0.42168454    -0.74800
O51         O  0.32545502  0.46743165  0.45874206    -0.74400
O52         O  0.20899323  0.41741638  0.38775272    -0.75000
O53         O  0.18693669  0.39575847  0.03570197    -0.74400
O54         O  0.13053970  0.02144763  0.46834676    -0.75100
O55         O  0.20678066  0.36784167  0.47406985    -0.74500
O56         O  0.13715563  0.48241108  0.02679022    -0.75000
O57         O  0.22426936  0.48556082  0.07639948    -0.74900
O58         O  0.28480560  0.00762244  0.04777281    -0.74700
C59         C  0.25315091  0.07677961  0.43428541     0.77100
C60         C  0.18380457  0.44087254  0.36697616     0.77600
C61         C  0.32843247  0.43134760  0.44101764     0.76600
C62         C  0.19019204  0.36436951  0.01058279     0.76900
C63         C  0.11601966  0.00752710  0.50354586     0.78100
C64         C  0.26026331  0.50337984  0.07954562     0.77100
C65         C  0.02522106  0.02019411  0.07591071     0.80200
N66         N  0.50690708  0.05574678  0.06016230    -0.78100
C67         C  0.02139055  0.07360723  0.02396877     0.82600
N68         N  0.05571600  0.05686652  0.50399122    -0.78100
C69         C  0.07495916  0.02182989  0.02011595     0.82700
N70         N  0.05957722  0.50360345  0.05614924    -0.79800
C71         C  0.16928839  0.42462532  0.32590908     0.80200
N72         N  0.13493102  0.44121420  0.30614812    -0.78100
C73         C  0.11954829  0.42298770  0.27011530     0.82600
N74         N  0.13879253  0.38795195  0.25398984    -0.78100
C75         C  0.17311986  0.37121294  0.27396658     0.82700
N76         N  0.18760379  0.38907339  0.31016025    -0.79800
Zn77       Zn  0.41849940  0.44652018  0.23507013     1.49700
Zn78       Zn  0.99967395  0.48651793  0.27659172     1.49400
Zn79       Zn  0.00870685  0.43729911  0.18668967     1.49100
Zn80       Zn  0.46036858  0.02752638  0.19481862     1.49500
O81         O  0.47223991  0.47389737  0.22281700    -1.84100
O82         O  0.40970103  0.43719498  0.29777252    -0.74800
O83         O  0.05735066  0.46240330  0.27679192    -0.74600
O84         O  0.47733180  0.38183829  0.17168531    -0.74100
O85         O  0.47023737  0.45925605  0.32640124    -0.74800
O86         O  0.41791041  0.38955018  0.20894876    -0.74400
O87         O  0.06396695  0.42337076  0.21834631    -0.75000
O88         O  0.48551622  0.02740296  0.13775376    -0.74400
O89         O  0.00757431  0.04905769  0.28570461    -0.75100
O90         O  0.02383509  0.46850520  0.13153512    -0.74500
O91         O  0.48772986  0.07697584  0.22407236    -0.75000
O92         O  0.39799313  0.03764859  0.18631425    -0.74900
O93         O  0.36905363  0.47738569  0.20873967    -0.74700
C94         C  0.43424311  0.44143764  0.32954637     0.77100
C95         C  0.07848697  0.43728924  0.25354619     0.77600
C96         C  0.44135841  0.36803813  0.18428614     0.76600
C97         C  0.01070453  0.50394643  0.11697746     0.76900
C98         C  0.50431983  0.08044708  0.26058543     0.78100
C99         C  0.36607602  0.01347050  0.19101666     0.77100
C100        C  0.27017221  0.07707045  0.16983206     0.80200
N101        N  0.30632069  0.06238239  0.18813587    -0.78100
C102        C  0.32538409  0.02685601  0.17349797     0.82600
N103        N  0.30941063  0.50679671  0.13898595    -0.78100
C104        C  0.27347864  0.02124933  0.12022469     0.82700
N105        N  0.25379472  0.05650349  0.13562792    -0.79800
C106        C  0.02140077  0.12121079  0.27397806     0.80200
N107        N  0.05572850  0.13795067  0.25400228    -0.78100
C108        C  0.07497177  0.17298976  0.27012401     0.82600
N109        N  0.05958721  0.19122059  0.30615347    -0.78100
C110        C  0.02522720  0.17463137  0.32591279     0.82700
N111        N  0.50691334  0.13907545  0.31016708    -0.79800
C112        C  0.17311275  0.32360533  0.02397531     0.80200
N113        N  0.18760096  0.30574146  0.06016484    -0.78100
C114        C  0.16928715  0.27018567  0.07591113     0.82600
N115        N  0.13492688  0.25359653  0.05615182    -0.78100
C116        C  0.11954145  0.27182679  0.02012223     0.82700
N117        N  0.13878439  0.30686574  0.50399968    -0.79800
Zn118      Zn  0.19484970  0.23652298  0.27658960     1.49700
Zn119      Zn  0.18580851  0.18729143  0.18669067     1.49400
Zn120      Zn  0.23414827  0.27752227  0.19481366     1.49100
Zn121      Zn  0.27601512  0.19651487  0.23507171     1.49500
O122        O  0.22227808  0.22389374  0.22281523    -1.84100
O123        O  0.13717092  0.21241010  0.27679442    -0.74800
O124        O  0.17067508  0.21849538  0.13153537    -0.74600
O125        O  0.20678541  0.32697573  0.22405961    -0.74100
O126        O  0.13055136  0.17336663  0.21835536    -0.74800
O127        O  0.18695325  0.29906314  0.28569795    -0.74400
O128        O  0.20900101  0.27739275  0.13774917    -0.75000
O129        O  0.32546197  0.22738621  0.20874945    -0.74400
O130        O  0.21718198  0.13182985  0.17168515    -0.75100
O131        O  0.29652402  0.28764371  0.18631157    -0.74500
O132        O  0.27660590  0.13954694  0.20894590    -0.75000
O133        O  0.28480750  0.18718220  0.29777320    -0.74900
O134        O  0.22428169  0.20926353  0.32640190    -0.74700
C135        C  0.11603311  0.18729119  0.25355313     0.77100
C136        C  0.18380806  0.25393629  0.11697559     0.77600
C137        C  0.19020074  0.33044976  0.26057425     0.76600
C138        C  0.32844040  0.26346884  0.19102148     0.76900
C139        C  0.25315682  0.11803286  0.18428364     0.78100
C140        C  0.26026849  0.19143358  0.32954704     0.77100
C141        C  0.42433541  0.36774748  0.91983387     0.80200
N142        N  0.38818789  0.38243599  0.93813770    -0.78100
C143        C  0.36912412  0.41796239  0.92349937     0.82600
N144        N  0.38509641  0.43802119  0.88898654    -0.78100
C145        C  0.42102753  0.42356798  0.87022536     0.82700
N146        N  0.44071187  0.38831411  0.88562926    -0.79800
C147        C  0.36913255  0.27685476  0.67350420     0.80200
N148        N  0.38819683  0.31238262  0.68814138    -0.78100
C149        C  0.42434359  0.32707395  0.66983601     0.82600
N150        N  0.44071865  0.30650885  0.63563092    -0.78100
C151        C  0.42103372  0.27125269  0.62022872     0.82700
N152        N  0.38510323  0.25679686  0.63899148    -0.79800
Zn153      Zn  0.41849637  0.24830213  0.98507357     1.49700
Zn154      Zn  0.00870151  0.25752778  0.93669072     1.49400
Zn155      Zn  0.99966357  0.20829686  0.52659102     1.49100
Zn156      Zn  0.46036541  0.16729724  0.94481338     1.49500
O157        O  0.47223395  0.22092534  0.97281612    -1.84100
O158        O  0.41790328  0.30527060  0.95894783    -0.74800
O159        O  0.06395909  0.27145243  0.96835550    -0.74600
O160        O  0.47023368  0.23555712  0.57640374    -0.74100
O161        O  0.47732579  0.31298858  0.92168638    -0.74800
O162        O  0.40970510  0.25763333  0.54777520    -0.74400
O163        O  0.05734261  0.23240741  0.52679408    -0.75000
O164        O  0.48772765  0.11784516  0.97406070    -0.74400
O165        O  0.02383658  0.22632388  0.88153544    -0.75100
O166        O  0.00755788  0.14575677  0.53570060    -0.74500
O167        O  0.48551370  0.16742500  0.88775013    -0.75000
O168        O  0.39799015  0.15717395  0.93631002    -0.74900
O169        O  0.36905006  0.21742867  0.95875141    -0.74700
C170        C  0.44135141  0.32678510  0.93428532     0.77100
C171        C  0.07847928  0.25752659  0.00355231     0.77600
C172        C  0.43424543  0.25338395  0.57954906     0.76600
C173        C  0.50431083  0.11437056  0.51057639     0.78100
C174        C  0.01070574  0.19088193  0.86697648     0.78100
C175        C  0.36607272  0.18134677  0.94102186     0.77100
C176        C  0.32538080  0.16796032  0.92350358     0.80200
N177        N  0.30631537  0.13243313  0.93814095    -0.78100
C178        C  0.27016782  0.11774294  0.91983483     0.82600
N179        N  0.25379360  0.13830834  0.88562884    -0.78100
C180        C  0.27347991  0.17356366  0.87022666     0.82700
N181        N  0.30941070  0.18801841  0.88899025    -0.79800
Zn182      Zn  0.27600836  0.99829681  0.98507068     1.49700
Zn183      Zn  0.18579968  0.00751989  0.93668907     1.49400
Zn184      Zn  0.23414015  0.41729221  0.94481743     1.49100
Zn185      Zn  0.19483338  0.45829843  0.52658937     1.49500
O186        O  0.22226758  0.47092076  0.97281575    -1.84100
O187        O  0.27659844  0.05526664  0.95894858    -0.74800
O188        O  0.17067236  0.47631320  0.88153405    -0.74600
O189        O  0.29651518  0.40717002  0.93631338    -0.74100
O190        O  0.21717653  0.06298078  0.92168452    -0.74800
O191        O  0.32545488  0.46743165  0.95874201    -0.74400
O192        O  0.20899328  0.41741639  0.88775267    -0.75000
O193        O  0.18693670  0.39575842  0.53570210    -0.74400
O194        O  0.13053954  0.02144760  0.96834676    -0.75100
O195        O  0.20678069  0.36784162  0.97406979    -0.74500
O196        O  0.13715557  0.48241103  0.52679020    -0.75000
O197        O  0.22426935  0.48556085  0.57639949    -0.74900
O198        O  0.28480563  0.00762245  0.54777278    -0.74700
C199        C  0.25315093  0.07677958  0.93428540     0.77100
C200        C  0.18380461  0.44087256  0.86697614     0.77600
C201        C  0.32843244  0.43134762  0.94101759     0.76600
C202        C  0.19019202  0.36436951  0.51058283     0.76900
C203        C  0.11601958  0.00752709  0.00354590     0.78100
C204        C  0.26026329  0.50337988  0.57954561     0.77100
C205        C  0.02522110  0.02019410  0.57591062     0.80200
N206        N  0.50690711  0.05574677  0.56016225    -0.78100
C207        C  0.02139059  0.07360724  0.52396872     0.82600
N208        N  0.05571597  0.05686650  0.00399129    -0.78100
C209        C  0.07495920  0.02182989  0.52011586     0.82700
N210        N  0.05957724  0.50360343  0.55614918    -0.79800
C211        C  0.16928843  0.42462533  0.82590910     0.80200
N212        N  0.13493104  0.44121420  0.80614815    -0.78100
C213        C  0.11954827  0.42298764  0.77011541     0.82600
N214        N  0.13879253  0.38795188  0.75398994    -0.78100
C215        C  0.17311991  0.37121295  0.77396661     0.82700
N216        N  0.18760386  0.38907341  0.81016026    -0.79800
Zn217      Zn  0.41849944  0.44652019  0.73507005     1.49700
Zn218      Zn  0.99967397  0.48651793  0.77659166     1.49400
Zn219      Zn  0.00870689  0.43729911  0.68668959     1.49100
Zn220      Zn  0.46036858  0.02752639  0.69481853     1.49500
O221        O  0.47223994  0.47389737  0.72281692    -1.84100
O222        O  0.40970112  0.43719500  0.79777252    -0.74800
O223        O  0.05735067  0.46240326  0.77679192    -0.74600
O224        O  0.47733180  0.38183827  0.67168523    -0.74100
O225        O  0.47023741  0.45925608  0.82640136    -0.74800
O226        O  0.41791042  0.38955020  0.70894868    -0.74400
O227        O  0.06396701  0.42337071  0.71834631    -0.75000
O228        O  0.48551625  0.02740296  0.63775367    -0.74400
O229        O  0.00757435  0.04905769  0.78570452    -0.75100
O230        O  0.02383512  0.46850521  0.63153503    -0.74500
O231        O  0.48772989  0.07697585  0.72407227    -0.75000
O232        O  0.39799303  0.03764862  0.68631418    -0.74900
O233        O  0.36905367  0.47738569  0.70873958    -0.74700
C234        C  0.43424315  0.44143766  0.82954640     0.77100
C235        C  0.07848697  0.43728913  0.75354622     0.77600
C236        C  0.44135843  0.36803812  0.68428603     0.76600
C237        C  0.01070456  0.50394642  0.61697738     0.76900
C238        C  0.50431988  0.08044710  0.76058534     0.78100
C239        C  0.36607595  0.01347050  0.69101660     0.77100
C240        C  0.27017218  0.07707039  0.66983223     0.80200
N241        N  0.30632065  0.06238235  0.68813599    -0.78100
C242        C  0.32538407  0.02685597  0.67349798     0.82600
N243        N  0.30941059  0.50679674  0.63898597    -0.78100
C244        C  0.27347868  0.02124937  0.62022470     0.82700
N245        N  0.25379469  0.05650348  0.63562804    -0.79800
C246        C  0.02140075  0.12121081  0.77397796     0.80200
N247        N  0.05572849  0.13795071  0.75400227    -0.78100
C248        C  0.07497177  0.17298974  0.77012400     0.82600
N249        N  0.05958720  0.19122052  0.80615357    -0.78100
C250        C  0.02522716  0.17463134  0.82591276     0.82700
N251        N  0.50691334  0.13907547  0.81016703    -0.79800
C252        C  0.17311270  0.32360532  0.52397526     0.80200
N253        N  0.18760085  0.30574149  0.56016482    -0.78100
C254        C  0.16928707  0.27018565  0.57591107     0.82600
N255        N  0.13492685  0.25359652  0.55615173    -0.78100
C256        C  0.11954140  0.27182681  0.52012215     0.82700
N257        N  0.13878440  0.30686573  0.00399977    -0.79800
Zn258      Zn  0.19484974  0.23652298  0.77658954     1.49700
Zn259      Zn  0.18580853  0.18729121  0.68669062     1.49400
Zn260      Zn  0.23414828  0.27752228  0.69481358     1.49100
Zn261      Zn  0.27601515  0.19651488  0.73507187     1.49500
O262        O  0.22227811  0.22389370  0.72281516    -1.84100
O263        O  0.13717092  0.21241010  0.77679438    -0.74800
O264        O  0.17067511  0.21849530  0.63153531    -0.74600
O265        O  0.20678544  0.32697574  0.72405960    -0.74100
O266        O  0.13055132  0.17336661  0.71835534    -0.74800
O267        O  0.18695328  0.29906313  0.78569792    -0.74400
O268        O  0.20900085  0.27739281  0.63774917    -0.75000
O269        O  0.32546200  0.22738627  0.70874962    -0.74400
O270        O  0.21718193  0.13182974  0.67168533    -0.75100
O271        O  0.29652405  0.28764368  0.68631146    -0.74500
O272        O  0.27660593  0.13954699  0.70894594    -0.75000
O273        O  0.28480749  0.18718218  0.79777323    -0.74900
O274        O  0.22428173  0.20926354  0.82640198    -0.74700
C275        C  0.11603308  0.18729123  0.75355317     0.77100
C276        C  0.18380798  0.25393629  0.61697558     0.77600
C277        C  0.19020080  0.33044977  0.76057426     0.76600
C278        C  0.32844043  0.26346881  0.69102145     0.76900
C279        C  0.25315678  0.11803283  0.68428380     0.78100
C280        C  0.26026849  0.19143354  0.82954707     0.77100
C281        C  0.42433536  0.86774744  0.41983381     0.80200
N282        N  0.38818790  0.88243606  0.43813779    -0.78100
C283        C  0.36912414  0.91796240  0.42349934     0.82600
N284        N  0.38509634  0.93802115  0.38898649    -0.78100
C285        C  0.42102754  0.92356797  0.37022533     0.82700
N286        N  0.44071177  0.88831405  0.38562924    -0.79800
C287        C  0.36913257  0.77685496  0.17350424     0.80200
N288        N  0.38819680  0.81238269  0.18814148    -0.78100
C289        C  0.42434368  0.82707406  0.16983605     0.82600
N290        N  0.44071862  0.80650889  0.13563101    -0.78100
C291        C  0.42103379  0.77125281  0.12022876     0.82700
N292        N  0.38510313  0.75679702  0.13899150    -0.79800
Zn293      Zn  0.41849651  0.74830231  0.48507341     1.49700
Zn294      Zn  0.00870159  0.75752773  0.43669078     1.49400
Zn295      Zn  0.99966346  0.70829681  0.02659108     1.49100
Zn296      Zn  0.46036528  0.66729721  0.44481346     1.49500
O297        O  0.47223397  0.72092542  0.47281613    -1.84100
O298        O  0.41790327  0.80527064  0.45894791    -0.74800
O299        O  0.06395907  0.77145233  0.46835543    -0.74600
O300        O  0.47023377  0.73555709  0.07640384    -0.74100
O301        O  0.47732571  0.81298852  0.42168638    -0.74800
O302        O  0.40970524  0.75763332  0.04777527    -0.74400
O303        O  0.05734257  0.73240742  0.02679412    -0.75000
O304        O  0.48772752  0.61784510  0.47406076    -0.74400
O305        O  0.02383648  0.72632385  0.38153549    -0.75100
O306        O  0.00755792  0.64575671  0.03570055    -0.74500
O307        O  0.48551352  0.66742500  0.38775003    -0.75000
O308        O  0.39799009  0.65717394  0.43631002    -0.74900
O309        O  0.36905014  0.71742871  0.45875139    -0.74700
C310        C  0.44135131  0.82678508  0.43428536     0.77100
C311        C  0.07847924  0.75752659  0.50355230     0.77600
C312        C  0.43424549  0.75338396  0.07954913     0.76600
C313        C  0.50431083  0.61437051  0.01057635     0.78100
C314        C  0.01070573  0.69088186  0.36697648     0.78100
C315        C  0.36607273  0.68134683  0.44102182     0.77100
C316        C  0.32538069  0.66796043  0.42350355     0.80200
N317        N  0.30631531  0.63243324  0.43814091    -0.78100
C318        C  0.27016773  0.61774299  0.41983475     0.82600
N319        N  0.25379361  0.63830836  0.38562873    -0.78100
C320        C  0.27347977  0.67356375  0.37022665     0.82700
N321        N  0.30941055  0.68801862  0.38899031    -0.79800
Zn322      Zn  0.27600843  0.49829684  0.48507051     1.49700
Zn323      Zn  0.18579957  0.50751987  0.43668891     1.49400
Zn324      Zn  0.23414029  0.91729216  0.44481750     1.49100
Zn325      Zn  0.19483345  0.95829836  0.02658921     1.49500
O326        O  0.22226753  0.97092071  0.47281568    -1.84100
O327        O  0.27659830  0.55526670  0.45894855    -0.74800
O328        O  0.17067240  0.97631324  0.38153407    -0.74600
O329        O  0.29651529  0.90717004  0.43631352    -0.74100
O330        O  0.21717633  0.56298095  0.42168457    -0.74800
O331        O  0.32545503  0.96743171  0.45874199    -0.74400
O332        O  0.20899342  0.91741650  0.38775267    -0.75000
O333        O  0.18693654  0.89575843  0.03570193    -0.74400
O334        O  0.13053957  0.52144756  0.46834672    -0.75100
O335        O  0.20678079  0.86784161  0.47406989    -0.74500
O336        O  0.13715557  0.98241100  0.02679018    -0.75000
O337        O  0.22426927  0.98556074  0.07639943    -0.74900
O338        O  0.28480564  0.50762249  0.04777276    -0.74700
C339        C  0.25315079  0.57677970  0.43428543     0.77100
C340        C  0.18380473  0.94087254  0.36697616     0.77600
C341        C  0.32843253  0.93134764  0.44101765     0.76600
C342        C  0.19019196  0.86436947  0.01058276     0.76900
C343        C  0.11601959  0.50752707  0.50354586     0.78100
C344        C  0.26026321  0.00337973  0.07954564     0.77100
C345        C  0.02522102  0.52019409  0.07591071     0.80200
N346        N  0.50690696  0.55574674  0.06016227    -0.78100
C347        C  0.02139046  0.57360717  0.02396876     0.82600
N348        N  0.05571591  0.55686642  0.50399119    -0.78100
C349        C  0.07495909  0.52182984  0.02011593     0.82700
N350        N  0.05957726  0.00360352  0.05614932    -0.79800
C351        C  0.16928836  0.92462542  0.32590909     0.80200
N352        N  0.13493101  0.94121411  0.30614818    -0.78100
C353        C  0.11954827  0.92298767  0.27011534     0.82600
N354        N  0.13879265  0.88795193  0.25398983    -0.78100
C355        C  0.17311994  0.87121303  0.27396658     0.82700
N356        N  0.18760391  0.88907343  0.31016024    -0.79800
Zn357      Zn  0.41849933  0.94652012  0.23507014     1.49700
Zn358      Zn  0.99967387  0.98651788  0.27659172     1.49400
Zn359      Zn  0.00870695  0.93729905  0.18668967     1.49100
Zn360      Zn  0.46036872  0.52752639  0.19481862     1.49500
O361        O  0.47223982  0.97389732  0.22281698    -1.84100
O362        O  0.40970105  0.93719488  0.29777251    -0.74800
O363        O  0.05735071  0.96240328  0.27679192    -0.74600
O364        O  0.47733190  0.88183822  0.17168531    -0.74100
O365        O  0.47023733  0.95925605  0.32640127    -0.74800
O366        O  0.41791049  0.88955018  0.20894877    -0.74400
O367        O  0.06396696  0.92337068  0.21834633    -0.75000
O368        O  0.48551634  0.52740308  0.13775379    -0.74400
O369        O  0.00757427  0.54905773  0.28570457    -0.75100
O370        O  0.02383504  0.96850515  0.13153509    -0.74500
O371        O  0.48772998  0.57697599  0.22407230    -0.75000
O372        O  0.39799309  0.53764874  0.18631429    -0.74900
O373        O  0.36905367  0.97738558  0.20873966    -0.74700
C374        C  0.43424308  0.94143759  0.32954636     0.77100
C375        C  0.07848701  0.93728916  0.25354618     0.77600
C376        C  0.44135842  0.86803811  0.18428615     0.76600
C377        C  0.01070441  0.00394639  0.11697743     0.76900
C378        C  0.50431984  0.58044715  0.26058542     0.78100
C379        C  0.36607599  0.51347062  0.19101669     0.77100
C380        C  0.27017219  0.57707045  0.16983210     0.80200
N381        N  0.30632069  0.56238240  0.18813593    -0.78100
C382        C  0.32538409  0.52685606  0.17349798     0.82600
N383        N  0.30941048  0.00679657  0.13898602    -0.78100
C384        C  0.27347877  0.52124949  0.12022460     0.82700
N385        N  0.25379479  0.55650352  0.13562792    -0.79800
C386        C  0.02140090  0.62121077  0.27397806     0.80200
N387        N  0.05572863  0.63795061  0.25400233    -0.78100
C388        C  0.07497188  0.67298971  0.27012406     0.82600
N389        N  0.05958730  0.69122051  0.30615355    -0.78100
C390        C  0.02522728  0.67463132  0.32591281     0.82700
N391        N  0.50691346  0.63907537  0.31016711    -0.79800
C392        C  0.17311268  0.82360535  0.02397526     0.80200
N393        N  0.18760091  0.80574152  0.06016481    -0.78100
C394        C  0.16928717  0.77018574  0.07591109     0.82600
N395        N  0.13492695  0.75359649  0.05615179    -0.78100
C396        C  0.11954144  0.77182678  0.02012219     0.82700
N397        N  0.13878433  0.80686571  0.50399968    -0.79800
Zn398      Zn  0.19484962  0.73652293  0.27658960     1.49700
Zn399      Zn  0.18580839  0.68729138  0.18669066     1.49400
Zn400      Zn  0.23414818  0.77752226  0.19481367     1.49100
Zn401      Zn  0.27601524  0.69651483  0.23507170     1.49500
O402        O  0.22227802  0.72389365  0.22281525    -1.84100
O403        O  0.13717098  0.71241002  0.27679440    -0.74800
O404        O  0.17067497  0.71849554  0.13153539    -0.74600
O405        O  0.20678551  0.82697583  0.22405962    -0.74100
O406        O  0.13055128  0.67336659  0.21835532    -0.74800
O407        O  0.18695333  0.79906315  0.28569791    -0.74400
O408        O  0.20900101  0.77739283  0.13774919    -0.75000
O409        O  0.32546190  0.72738642  0.20874944    -0.74400
O410        O  0.21718204  0.63182984  0.17168516    -0.75100
O411        O  0.29652402  0.78764395  0.18631157    -0.74500
O412        O  0.27660601  0.63954689  0.20894588    -0.75000
O413        O  0.28480746  0.68718214  0.29777319    -0.74900
O414        O  0.22428163  0.70926347  0.32640189    -0.74700
C415        C  0.11603312  0.68729114  0.25355314     0.77100
C416        C  0.18380805  0.75393639  0.11697560     0.77600
C417        C  0.19020086  0.83044980  0.26057426     0.76600
C418        C  0.32844036  0.76346901  0.19102147     0.76900
C419        C  0.25315688  0.61803283  0.18428368     0.78100
C420        C  0.26026846  0.69143354  0.32954702     0.77100
C421        C  0.42433536  0.86774745  0.91983387     0.80200
N422        N  0.38818795  0.88243609  0.93813779    -0.78100
C423        C  0.36912416  0.91796243  0.92349938     0.82600
N424        N  0.38509637  0.93802115  0.88898648    -0.78100
C425        C  0.42102752  0.92356794  0.87022534     0.82700
N426        N  0.44071180  0.88831405  0.88562922    -0.79800
C427        C  0.36913257  0.77685493  0.67350422     0.80200
N428        N  0.38819682  0.81238269  0.68814142    -0.78100
C429        C  0.42434368  0.82707404  0.66983597     0.82600
N430        N  0.44071861  0.80650890  0.63563092    -0.78100
C431        C  0.42103369  0.77125282  0.62022867     0.82700
N432        N  0.38510310  0.75679703  0.63899144    -0.79800
Zn433      Zn  0.41849653  0.74830232  0.98507357     1.49700
Zn434      Zn  0.00870140  0.75752774  0.93669071     1.49400
Zn435      Zn  0.99966349  0.70829682  0.52659103     1.49100
Zn436      Zn  0.46036531  0.66729721  0.94481340     1.49500
O437        O  0.47223400  0.72092543  0.97281611    -1.84100
O438        O  0.41790316  0.80527062  0.95894783    -0.74800
O439        O  0.06395901  0.77145239  0.96835549    -0.74600
O440        O  0.47023367  0.73555704  0.57640382    -0.74100
O441        O  0.47732567  0.81298852  0.92168637    -0.74800
O442        O  0.40970520  0.75763336  0.54777516    -0.74400
O443        O  0.05734258  0.73240749  0.52679415    -0.75000
O444        O  0.48772755  0.61784511  0.97406074    -0.74400
O445        O  0.02383646  0.72632387  0.88153542    -0.75100
O446        O  0.00755799  0.64575672  0.53570055    -0.74500
O447        O  0.48551358  0.66742499  0.88775011    -0.75000
O448        O  0.39799011  0.65717395  0.93630999    -0.74900
O449        O  0.36905020  0.71742872  0.95875143    -0.74700
C450        C  0.44135130  0.82678508  0.93428529     0.77100
C451        C  0.07847923  0.75752658  0.00355234     0.77600
C452        C  0.43424542  0.75338395  0.57954907     0.76600
C453        C  0.50431079  0.61437052  0.51057638     0.78100
C454        C  0.01070572  0.69088184  0.86697649     0.78100
C455        C  0.36607275  0.68134685  0.94102186     0.77100
C456        C  0.32538072  0.66796044  0.92350364     0.80200
N457        N  0.30631535  0.63243324  0.93814094    -0.78100
C458        C  0.27016776  0.61774301  0.91983484     0.82600
N459        N  0.25379360  0.63830843  0.88562881    -0.78100
C460        C  0.27347985  0.67356371  0.87022667     0.82700
N461        N  0.30941062  0.68801859  0.88899032    -0.79800
Zn462      Zn  0.27600845  0.49829685  0.98507067     1.49700
Zn463      Zn  0.18579961  0.50751987  0.93668907     1.49400
Zn464      Zn  0.23414030  0.91729217  0.94481743     1.49100
Zn465      Zn  0.19483349  0.95829836  0.52658936     1.49500
O466        O  0.22226752  0.97092068  0.97281576    -1.84100
O467        O  0.27659832  0.55526667  0.95894853    -0.74800
O468        O  0.17067220  0.97631326  0.88153409    -0.74600
O469        O  0.29651532  0.90717004  0.93631343    -0.74100
O470        O  0.21717636  0.56298095  0.92168454    -0.74800
O471        O  0.32545496  0.96743173  0.95874197    -0.74400
O472        O  0.20899322  0.91741651  0.88775267    -0.75000
O473        O  0.18693660  0.89575839  0.53570206    -0.74400
O474        O  0.13053955  0.52144761  0.96834677    -0.75100
O475        O  0.20678082  0.86784156  0.97406983    -0.74500
O476        O  0.13715559  0.98241096  0.52679017    -0.75000
O477        O  0.22426931  0.98556077  0.57639946    -0.74900
O478        O  0.28480563  0.50762249  0.54777271    -0.74700
C479        C  0.25315081  0.57677970  0.93428540     0.77100
C480        C  0.18380452  0.94087260  0.86697618     0.77600
C481        C  0.32843254  0.93134767  0.94101761     0.76600
C482        C  0.19019196  0.86436947  0.51058280     0.76900
C483        C  0.11601960  0.50752715  0.00354590     0.78100
C484        C  0.26026324  0.00337978  0.57954563     0.77100
C485        C  0.02522105  0.52019409  0.57591063     0.80200
N486        N  0.50690700  0.55574672  0.56016222    -0.78100
C487        C  0.02139051  0.57360718  0.52396871     0.82600
N488        N  0.05571588  0.55686643  0.00399124    -0.78100
C489        C  0.07495910  0.52182982  0.52011584     0.82700
N490        N  0.05957730  0.00360353  0.55614922    -0.79800
C491        C  0.16928835  0.92462547  0.82590909     0.80200
N492        N  0.13493095  0.94121417  0.80614819    -0.78100
C493        C  0.11954822  0.92298762  0.77011540     0.82600
N494        N  0.13879260  0.88795191  0.75398995    -0.78100
C495        C  0.17312001  0.87121308  0.77396660     0.82700
N496        N  0.18760399  0.88907359  0.81016021    -0.79800
Zn497      Zn  0.41849935  0.94652013  0.73507006     1.49700
Zn498      Zn  0.99967388  0.98651788  0.77659167     1.49400
Zn499      Zn  0.00870699  0.93729906  0.68668959     1.49100
Zn500      Zn  0.46036875  0.52752640  0.69481853     1.49500
O501        O  0.47223980  0.97389735  0.72281691    -1.84100
O502        O  0.40970115  0.93719489  0.79777251    -0.74800
O503        O  0.05735068  0.96240330  0.77679190    -0.74600
O504        O  0.47733189  0.88183821  0.67168521    -0.74100
O505        O  0.47023736  0.95925608  0.82640139    -0.74800
O506        O  0.41791052  0.88955018  0.70894869    -0.74400
O507        O  0.06396696  0.92337067  0.71834633    -0.75000
O508        O  0.48551637  0.52740308  0.63775371    -0.74400
O509        O  0.00757431  0.54905773  0.78570447    -0.75100
O510        O  0.02383508  0.96850516  0.63153500    -0.74500
O511        O  0.48773001  0.57697599  0.72407222    -0.75000
O512        O  0.39799311  0.53764873  0.68631419    -0.74900
O513        O  0.36905363  0.97738556  0.70873958    -0.74700
C514        C  0.43424313  0.94143761  0.82954639     0.77100
C515        C  0.07848695  0.93728914  0.75354623     0.77600
C516        C  0.44135844  0.86803810  0.68428606     0.76600
C517        C  0.01070444  0.00394639  0.61697735     0.76900
C518        C  0.50431988  0.58044716  0.76058533     0.78100
C519        C  0.36607603  0.51347062  0.69101660     0.77100
C520        C  0.27017211  0.57707040  0.66983223     0.80200
N521        N  0.30632069  0.56238239  0.68813604    -0.78100
C522        C  0.32538409  0.52685606  0.67349796     0.82600
N523        N  0.30941051  0.00679664  0.63898598    -0.78100
C524        C  0.27347875  0.52124952  0.62022462     0.82700
N525        N  0.25379476  0.55650355  0.63562805    -0.79800
C526        C  0.02140091  0.62121076  0.77397797     0.80200
N527        N  0.05572863  0.63795064  0.75400231    -0.78100
C528        C  0.07497186  0.67298968  0.77012400     0.82600
N529        N  0.05958722  0.69122051  0.80615357    -0.78100
C530        C  0.02522726  0.67463130  0.82591276     0.82700
N531        N  0.50691341  0.63907539  0.81016706    -0.79800
C532        C  0.17311270  0.82360534  0.52397522     0.80200
N533        N  0.18760090  0.80574146  0.56016474    -0.78100
C534        C  0.16928713  0.77018577  0.57591107     0.82600
N535        N  0.13492684  0.75359653  0.55615175    -0.78100
C536        C  0.11954145  0.77182680  0.52012212     0.82700
N537        N  0.13878432  0.80686572  0.00399978    -0.79800
Zn538      Zn  0.19484963  0.73652293  0.77658954     1.49700
Zn539      Zn  0.18580840  0.68729139  0.68669060     1.49400
Zn540      Zn  0.23414821  0.77752226  0.69481358     1.49100
Zn541      Zn  0.27601503  0.69651485  0.73507186     1.49500
O542        O  0.22227799  0.72389368  0.72281519    -1.84100
O543        O  0.13717088  0.71241008  0.77679439    -0.74800
O544        O  0.17067495  0.71849554  0.63153535    -0.74600
O545        O  0.20678553  0.82697586  0.72405961    -0.74100
O546        O  0.13055128  0.67336660  0.71835533    -0.74800
O547        O  0.18695336  0.79906316  0.78569789    -0.74400
O548        O  0.20900098  0.77739284  0.63774914    -0.75000
O549        O  0.32546188  0.72738647  0.70874962    -0.74400
O550        O  0.21718186  0.63182974  0.67168533    -0.75100
O551        O  0.29652404  0.78764393  0.68631146    -0.74500
O552        O  0.27660586  0.63954696  0.70894594    -0.75000
O553        O  0.28480742  0.68718213  0.79777320    -0.74900
O554        O  0.22428166  0.70926348  0.82640197    -0.74700
C555        C  0.11603308  0.68729119  0.75355319     0.77100
C556        C  0.18380793  0.75393639  0.61697558     0.77600
C557        C  0.19020092  0.83044984  0.76057428     0.76600
C558        C  0.32844037  0.76346900  0.69102148     0.76900
C559        C  0.25315677  0.61803281  0.68428385     0.78100
C560        C  0.26026847  0.69143353  0.82954705     0.77100
C561        C  0.92433547  0.36774748  0.41983381     0.80200
N562        N  0.88818790  0.38243598  0.43813770    -0.78100
C563        C  0.86912416  0.41796238  0.42349935     0.82600
N564        N  0.88509642  0.43802119  0.38898656    -0.78100
C565        C  0.92102760  0.42356801  0.37022534     0.82700
N566        N  0.94071189  0.38831412  0.38562927    -0.79800
C567        C  0.86913250  0.27685479  0.17350425     0.80200
N568        N  0.88819681  0.31238258  0.18814151    -0.78100
C569        C  0.92434359  0.32707394  0.16983608     0.82600
N570        N  0.94071854  0.30650885  0.13563097    -0.78100
C571        C  0.92103368  0.27125270  0.12022875     0.82700
N572        N  0.88510312  0.25679688  0.13899152    -0.79800
Zn573      Zn  0.91849641  0.24830213  0.48507341     1.49700
Zn574      Zn  0.50870154  0.25752777  0.43669079     1.49400
Zn575      Zn  0.49966349  0.20829685  0.02659107     1.49100
Zn576      Zn  0.96036545  0.16729723  0.44481345     1.49500
O577        O  0.97223397  0.22092533  0.47281614    -1.84100
O578        O  0.91790332  0.30527062  0.45894785    -0.74800
O579        O  0.56395914  0.27145236  0.46835544    -0.74600
O580        O  0.97023370  0.23555713  0.07640380    -0.74100
O581        O  0.97732583  0.31298858  0.42168644    -0.74800
O582        O  0.90970513  0.25763334  0.04777525    -0.74400
O583        O  0.55734262  0.23240734  0.02679404    -0.75000
O584        O  0.98772770  0.11784516  0.47406074    -0.74400
O585        O  0.52383663  0.22632388  0.38153550    -0.75100
O586        O  0.50755783  0.14575675  0.03570057    -0.74500
O587        O  0.98551366  0.16742503  0.38775008    -0.75000
O588        O  0.89799021  0.15717394  0.43631005    -0.74900
O589        O  0.86905007  0.21742865  0.45875138    -0.74700
C590        C  0.94135141  0.32678511  0.43428538     0.77100
C591        C  0.57847932  0.25752660  0.50355228     0.77600
C592        C  0.93424541  0.25338394  0.07954912     0.76600
C593        C  0.00431086  0.11437056  0.01057636     0.78100
C594        C  0.51070582  0.19088192  0.36697650     0.78100
C595        C  0.86607277  0.18134675  0.44102182     0.77100
C596        C  0.82538085  0.16796031  0.42350348     0.80200
N597        N  0.80631538  0.13243313  0.43814089    -0.78100
C598        C  0.77016781  0.11774295  0.41983477     0.82600
N599        N  0.75379361  0.13830840  0.38562879    -0.78100
C600        C  0.77347986  0.17356375  0.37022666     0.82700
N601        N  0.80941072  0.18801846  0.38899022    -0.79800
Zn602      Zn  0.77600839  0.99829680  0.48507051     1.49700
Zn603      Zn  0.68579971  0.00751989  0.43668891     1.49400
Zn604      Zn  0.73414019  0.41729220  0.44481749     1.49100
Zn605      Zn  0.69483341  0.45829843  0.02658921     1.49500
O606        O  0.72226756  0.47092076  0.47281568    -1.84100
O607        O  0.77659828  0.05526669  0.45894864    -0.74800
O608        O  0.67067237  0.47631319  0.38153405    -0.74600
O609        O  0.79651522  0.40717002  0.43631346    -0.74100
O610        O  0.71717645  0.06298081  0.42168447    -0.74800
O611        O  0.82545495  0.46743164  0.45874203    -0.74400
O612        O  0.70899329  0.41741639  0.38775270    -0.75000
O613        O  0.68693673  0.39575846  0.03570197    -0.74400
O614        O  0.63053964  0.02144761  0.46834672    -0.75100
O615        O  0.70678073  0.36784167  0.47406985    -0.74500
O616        O  0.63715564  0.48241109  0.02679023    -0.75000
O617        O  0.72426936  0.48556080  0.07639943    -0.74900
O618        O  0.78480567  0.00762245  0.04777281    -0.74700
C619        C  0.75315081  0.07677963  0.43428541     0.77100
C620        C  0.68380462  0.44087251  0.36697618     0.77600
C621        C  0.82843248  0.43134759  0.44101764     0.76600
C622        C  0.69019209  0.36436950  0.01058279     0.76900
C623        C  0.61601967  0.00752710  0.50354585     0.78100
C624        C  0.76026329  0.50337984  0.07954560     0.77100
C625        C  0.52522112  0.02019412  0.07591072     0.80200
N626        N  0.00690702  0.05574679  0.06016230    -0.78100
C627        C  0.52139057  0.07360723  0.02396876     0.82600
N628        N  0.55571604  0.05686653  0.50399123    -0.78100
C629        C  0.57495922  0.02182990  0.02011596     0.82700
N630        N  0.55957723  0.50360349  0.05614927    -0.79800
C631        C  0.66928835  0.42462531  0.32590911     0.80200
N632        N  0.63493105  0.44121419  0.30614813    -0.78100
C633        C  0.61954833  0.42298771  0.27011528     0.82600
N634        N  0.63879260  0.38795195  0.25398984    -0.78100
C635        C  0.67311991  0.37121296  0.27396658     0.82700
N636        N  0.68760382  0.38907338  0.31016027    -0.79800
Zn637      Zn  0.91849925  0.44652019  0.23507013     1.49700
Zn638      Zn  0.49967390  0.48651793  0.27659172     1.49400
Zn639      Zn  0.50870690  0.43729911  0.18668967     1.49100
Zn640      Zn  0.96036861  0.02752638  0.19481862     1.49500
O641        O  0.97223986  0.47389737  0.22281702    -1.84100
O642        O  0.90970101  0.43719498  0.29777253    -0.74800
O643        O  0.55735070  0.46240330  0.27679192    -0.74600
O644        O  0.97733182  0.38183826  0.17168530    -0.74100
O645        O  0.97023738  0.45925605  0.32640123    -0.74800
O646        O  0.91791043  0.38955019  0.20894876    -0.74400
O647        O  0.56396702  0.42337076  0.21834630    -0.75000
O648        O  0.98551624  0.02740299  0.13775378    -0.74400
O649        O  0.50757438  0.04905768  0.28570460    -0.75100
O650        O  0.52383510  0.46850522  0.13153512    -0.74500
O651        O  0.98772991  0.07697584  0.22407234    -0.75000
O652        O  0.89799306  0.03764862  0.18631427    -0.74900
O653        O  0.86905362  0.47738571  0.20873965    -0.74700
C654        C  0.93424310  0.44143764  0.32954637     0.77100
C655        C  0.57848703  0.43728924  0.25354618     0.77600
C656        C  0.94135842  0.36803810  0.18428613     0.76600
C657        C  0.51070445  0.50394644  0.11697743     0.76900
C658        C  0.00431981  0.08044709  0.26058543     0.78100
C659        C  0.86607597  0.01347049  0.19101668     0.77100
C660        C  0.77017226  0.07707046  0.16983208     0.80200
N661        N  0.80632069  0.06238240  0.18813586    -0.78100
C662        C  0.82538409  0.02685598  0.17349800     0.82600
N663        N  0.80941051  0.50679671  0.13898597    -0.78100
C664        C  0.77347871  0.02124934  0.12022468     0.82700
N665        N  0.75379476  0.05650349  0.13562789    -0.79800
C666        C  0.52140079  0.12121080  0.27397805     0.80200
N667        N  0.55572852  0.13795065  0.25400232    -0.78100
C668        C  0.57497178  0.17298977  0.27012404     0.82600
N669        N  0.55958722  0.19122056  0.30615351    -0.78100
C670        C  0.52522721  0.17463137  0.32591280     0.82700
N671        N  0.00691340  0.13907542  0.31016712    -0.79800
C672        C  0.67311275  0.32360532  0.02397530     0.80200
N673        N  0.68760090  0.30574150  0.06016488    -0.78100
C674        C  0.66928711  0.27018564  0.07591111     0.82600
N675        N  0.63492688  0.25359651  0.05615180    -0.78100
C676        C  0.61954143  0.27182681  0.02012224     0.82700
N677        N  0.63878446  0.30686574  0.50399968    -0.79800
Zn678      Zn  0.69484974  0.23652298  0.27658961     1.49700
Zn679      Zn  0.68580851  0.18729142  0.18669067     1.49400
Zn680      Zn  0.73414808  0.27752227  0.19481366     1.49100
Zn681      Zn  0.77601514  0.19651488  0.23507170     1.49500
O682        O  0.72227799  0.22389373  0.22281524    -1.84100
O683        O  0.63717093  0.21241008  0.27679440    -0.74800
O684        O  0.67067494  0.21849538  0.13153537    -0.74600
O685        O  0.70678544  0.32697575  0.22405961    -0.74100
O686        O  0.63055123  0.17336666  0.21835532    -0.74800
O687        O  0.68695332  0.29906314  0.28569795    -0.74400
O688        O  0.70900085  0.27739275  0.13774919    -0.75000
O689        O  0.82546197  0.22738621  0.20874946    -0.74400
O690        O  0.71718200  0.13182985  0.17168515    -0.75100
O691        O  0.79652396  0.28764369  0.18631157    -0.74500
O692        O  0.77660592  0.13954694  0.20894590    -0.75000
O693        O  0.78480737  0.18718220  0.29777318    -0.74900
O694        O  0.72428159  0.20926350  0.32640195    -0.74700
C695        C  0.61603305  0.18729121  0.25355312     0.77100
C696        C  0.68380797  0.25393629  0.11697559     0.77600
C697        C  0.69020082  0.33044977  0.26057427     0.76600
C698        C  0.82844036  0.26346883  0.19102148     0.76900
C699        C  0.75315679  0.11803285  0.18428364     0.78100
C700        C  0.76026842  0.19143360  0.32954705     0.77100
C701        C  0.92433549  0.36774749  0.91983386     0.80200
N702        N  0.88818795  0.38243599  0.93813771    -0.78100
C703        C  0.86912419  0.41796239  0.92349938     0.82600
N704        N  0.88509645  0.43802119  0.88898655    -0.78100
C705        C  0.92102758  0.42356798  0.87022535     0.82700
N706        N  0.94071192  0.38831413  0.88562925    -0.79800
C707        C  0.86913254  0.27685477  0.67350418     0.80200
N708        N  0.88819684  0.31238258  0.68814143    -0.78100
C709        C  0.92434362  0.32707394  0.66983599     0.82600
N710        N  0.94071857  0.30650885  0.63563090    -0.78100
C711        C  0.92103371  0.27125269  0.62022869     0.82700
N712        N  0.88510314  0.25679688  0.63899146    -0.79800
Zn713      Zn  0.91849644  0.24830213  0.98507357     1.49700
Zn714      Zn  0.50870155  0.25752778  0.93669073     1.49400
Zn715      Zn  0.49966353  0.20829686  0.52659103     1.49100
Zn716      Zn  0.96036546  0.16729724  0.94481339     1.49500
O717        O  0.97223399  0.22092533  0.97281612    -1.84100
O718        O  0.91790335  0.30527060  0.95894783    -0.74800
O719        O  0.56395914  0.27145242  0.96835549    -0.74600
O720        O  0.97023374  0.23555713  0.57640376    -0.74100
O721        O  0.97732585  0.31298858  0.92168637    -0.74800
O722        O  0.90970517  0.25763333  0.54777519    -0.74400
O723        O  0.55734265  0.23240741  0.52679408    -0.75000
O724        O  0.98772775  0.11784517  0.97406067    -0.74400
O725        O  0.52383646  0.22632395  0.88153540    -0.75100
O726        O  0.50755789  0.14575677  0.53570057    -0.74500
O727        O  0.98551355  0.16742509  0.88775008    -0.75000
O728        O  0.89799021  0.15717395  0.93631003    -0.74900
O729        O  0.86905011  0.21742866  0.95875140    -0.74700
C730        C  0.94135147  0.32678511  0.93428532     0.77100
C731        C  0.57847930  0.25752659  0.00355231     0.77600
C732        C  0.93424544  0.25338393  0.57954907     0.76600
C733        C  0.00431088  0.11437057  0.51057639     0.78100
C734        C  0.51070578  0.19088192  0.86697649     0.78100
C735        C  0.86607279  0.18134676  0.94102186     0.77100
C736        C  0.82538080  0.16796027  0.92350353     0.80200
N737        N  0.80631536  0.13243312  0.93814095    -0.78100
C738        C  0.77016769  0.11774295  0.91983482     0.82600
N739        N  0.75379358  0.13830837  0.88562885    -0.78100
C740        C  0.77347982  0.17356367  0.87022666     0.82700
N741        N  0.80941071  0.18801841  0.88899025    -0.79800
Zn742      Zn  0.77600842  0.99829681  0.98507068     1.49700
Zn743      Zn  0.68579973  0.00751988  0.93668907     1.49400
Zn744      Zn  0.73414022  0.41729221  0.94481742     1.49100
Zn745      Zn  0.69483344  0.45829842  0.52658936     1.49500
O746        O  0.72226762  0.47092075  0.97281577    -1.84100
O747        O  0.77659823  0.05526664  0.95894857    -0.74800
O748        O  0.67067242  0.47631321  0.88153406    -0.74600
O749        O  0.79651525  0.40717002  0.93631338    -0.74100
O750        O  0.71717634  0.06298083  0.92168450    -0.74800
O751        O  0.82545495  0.46743165  0.95874201    -0.74400
O752        O  0.70899333  0.41741640  0.88775264    -0.75000
O753        O  0.68693678  0.39575842  0.53570210    -0.74400
O754        O  0.63053961  0.02144759  0.96834676    -0.75100
O755        O  0.70678075  0.36784162  0.97406980    -0.74500
O756        O  0.63715564  0.48241102  0.52679019    -0.75000
O757        O  0.72426922  0.48556089  0.57639947    -0.74900
O758        O  0.78480567  0.00762244  0.54777276    -0.74700
C759        C  0.75315077  0.07677962  0.93428543     0.77100
C760        C  0.68380463  0.44087255  0.86697615     0.77600
C761        C  0.82843251  0.43134761  0.94101760     0.76600
C762        C  0.69019209  0.36436951  0.51058283     0.76900
C763        C  0.61601964  0.00752710  0.00354590     0.78100
C764        C  0.76026317  0.50337989  0.57954562     0.77100
C765        C  0.52522116  0.02019411  0.57591065     0.80200
N766        N  0.00690706  0.05574677  0.56016224    -0.78100
C767        C  0.52139061  0.07360724  0.52396872     0.82600
N768        N  0.55571602  0.05686652  0.00399129    -0.78100
C769        C  0.57495924  0.02182990  0.52011588     0.82700
N770        N  0.55957725  0.50360347  0.55614922    -0.79800
C771        C  0.66928835  0.42462530  0.82590915     0.80200
N772        N  0.63493097  0.44121417  0.80614823    -0.78100
C773        C  0.61954829  0.42298767  0.77011538     0.82600
N774        N  0.63879255  0.38795194  0.75398993    -0.78100
C775        C  0.67311991  0.37121298  0.77396660     0.82700
N776        N  0.68760385  0.38907343  0.81016026    -0.79800
Zn777      Zn  0.91849928  0.44652019  0.73507005     1.49700
Zn778      Zn  0.49967393  0.48651793  0.77659166     1.49400
Zn779      Zn  0.50870694  0.43729911  0.68668959     1.49100
Zn780      Zn  0.96036865  0.02752639  0.69481853     1.49500
O781        O  0.97223989  0.47389737  0.72281693    -1.84100
O782        O  0.90970110  0.43719499  0.79777252    -0.74800
O783        O  0.55735070  0.46240332  0.77679189    -0.74600
O784        O  0.97733185  0.38183826  0.67168522    -0.74100
O785        O  0.97023741  0.45925608  0.82640135    -0.74800
O786        O  0.91791046  0.38955020  0.70894867    -0.74400
O787        O  0.56396707  0.42337076  0.71834629    -0.75000
O788        O  0.98551628  0.02740299  0.63775370    -0.74400
O789        O  0.50757441  0.04905768  0.78570450    -0.75100
O790        O  0.52383514  0.46850523  0.63153504    -0.74500
O791        O  0.98772994  0.07697584  0.72407225    -0.75000
O792        O  0.89799308  0.03764857  0.68631419    -0.74900
O793        O  0.86905366  0.47738571  0.70873956    -0.74700
C794        C  0.93424314  0.44143766  0.82954640     0.77100
C795        C  0.57848702  0.43728923  0.75354621     0.77600
C796        C  0.94135845  0.36803811  0.68428604     0.76600
C797        C  0.51070448  0.50394643  0.61697735     0.76900
C798        C  0.00431983  0.08044710  0.76058535     0.78100
C799        C  0.86607597  0.01347049  0.69101661     0.77100
C800        C  0.77017225  0.07707039  0.66983223     0.80200
N801        N  0.80632072  0.06238236  0.68813599    -0.78100
C802        C  0.82538414  0.02685600  0.67349795     0.82600
N803        N  0.80941053  0.50679677  0.63898592    -0.78100
C804        C  0.77347874  0.02124938  0.62022469     0.82700
N805        N  0.75379476  0.05650348  0.63562804    -0.79800
C806        C  0.52140082  0.12121081  0.77397796     0.80200
N807        N  0.55572855  0.13795071  0.75400228    -0.78100
C808        C  0.57497181  0.17298973  0.77012401     0.82600
N809        N  0.55958727  0.19122053  0.80615359    -0.78100
C810        C  0.52522722  0.17463133  0.82591277     0.82700
N811        N  0.00691326  0.13907547  0.81016703    -0.79800
C812        C  0.67311277  0.32360532  0.52397526     0.80200
N813        N  0.68760093  0.30574149  0.56016482    -0.78100
C814        C  0.66928712  0.27018564  0.57591106     0.82600
N815        N  0.63492692  0.25359652  0.55615172    -0.78100
C816        C  0.61954147  0.27182681  0.52012215     0.82700
N817        N  0.63878443  0.30686574  0.00399976    -0.79800
Zn818      Zn  0.69484955  0.23652298  0.77658954     1.49700
Zn819      Zn  0.68580854  0.18729120  0.68669061     1.49400
Zn820      Zn  0.73414810  0.27752228  0.69481358     1.49100
Zn821      Zn  0.77601517  0.19651489  0.73507186     1.49500
O822        O  0.72227798  0.22389369  0.72281518    -1.84100
O823        O  0.63717091  0.21241008  0.77679438    -0.74800
O824        O  0.67067499  0.21849535  0.63153533    -0.74600
O825        O  0.70678541  0.32697575  0.72405960    -0.74100
O826        O  0.63055125  0.17336663  0.71835530    -0.74800
O827        O  0.68695325  0.29906314  0.78569793    -0.74400
O828        O  0.70900087  0.27739276  0.63774915    -0.75000
O829        O  0.82546202  0.22738628  0.70874963    -0.74400
O830        O  0.71718201  0.13182974  0.67168533    -0.75100
O831        O  0.79652399  0.28764366  0.68631147    -0.74500
O832        O  0.77660600  0.13954699  0.70894594    -0.75000
O833        O  0.78480734  0.18718218  0.79777323    -0.74900
O834        O  0.72428157  0.20926353  0.82640199    -0.74700
C835        C  0.61603306  0.18729123  0.75355316     0.77100
C836        C  0.68380798  0.25393629  0.61697557     0.77600
C837        C  0.69020078  0.33044978  0.76057426     0.76600
C838        C  0.82844039  0.26346882  0.69102147     0.76900
C839        C  0.75315685  0.11803283  0.68428380     0.78100
C840        C  0.76026839  0.19143356  0.82954708     0.77100
C841        C  0.92433541  0.86774745  0.41983382     0.80200
N842        N  0.88818797  0.88243607  0.43813778    -0.78100
C843        C  0.86912420  0.91796242  0.42349935     0.82600
N844        N  0.88509641  0.93802115  0.38898649    -0.78100
C845        C  0.92102760  0.92356797  0.37022534     0.82700
N846        N  0.94071184  0.88831405  0.38562923    -0.79800
C847        C  0.86913248  0.77685499  0.17350424     0.80200
N848        N  0.88819681  0.81238269  0.18814148    -0.78100
C849        C  0.92434365  0.82707402  0.16983610     0.82600
N850        N  0.94071863  0.80650888  0.13563100    -0.78100
C851        C  0.92103370  0.77125281  0.12022876     0.82700
N852        N  0.88510311  0.75679704  0.13899148    -0.79800
Zn853      Zn  0.91849656  0.74830232  0.48507342     1.49700
Zn854      Zn  0.50870142  0.75752773  0.43669078     1.49400
Zn855      Zn  0.49966343  0.70829681  0.02659108     1.49100
Zn856      Zn  0.96036535  0.66729721  0.44481346     1.49500
O857        O  0.97223407  0.72092543  0.47281612    -1.84100
O858        O  0.91790320  0.80527064  0.45894786    -0.74800
O859        O  0.56395907  0.77145232  0.46835542    -0.74600
O860        O  0.97023370  0.73555704  0.07640386    -0.74100
O861        O  0.97732574  0.81298850  0.42168645    -0.74800
O862        O  0.90970523  0.75763336  0.04777523    -0.74400
O863        O  0.55734260  0.73240742  0.02679410    -0.75000
O864        O  0.98772755  0.61784511  0.47406078    -0.74400
O865        O  0.52383651  0.72632384  0.38153551    -0.75100
O866        O  0.50755798  0.64575671  0.03570054    -0.74500
O867        O  0.98551356  0.66742497  0.38775004    -0.75000
O868        O  0.89799016  0.65717394  0.43631002    -0.74900
O869        O  0.86905022  0.71742871  0.45875139    -0.74700
C870        C  0.94135132  0.82678507  0.43428535     0.77100
C871        C  0.57847928  0.75752658  0.50355229     0.77600
C872        C  0.93424546  0.75338395  0.07954912     0.76600
C873        C  0.00431080  0.61437050  0.01057636     0.78100
C874        C  0.51070573  0.69088185  0.36697650     0.78100
C875        C  0.86607280  0.68134683  0.44102182     0.77100
C876        C  0.82538077  0.66796043  0.42350355     0.80200
N877        N  0.80631539  0.63243324  0.43814091    -0.78100
C878        C  0.77016780  0.61774299  0.41983475     0.82600
N879        N  0.75379368  0.63830837  0.38562873    -0.78100
C880        C  0.77347985  0.67356375  0.37022665     0.82700
N881        N  0.80941062  0.68801862  0.38899031    -0.79800
Zn882      Zn  0.77600848  0.49829684  0.48507051     1.49700
Zn883      Zn  0.68579964  0.50751987  0.43668891     1.49400
Zn884      Zn  0.73414034  0.91729216  0.44481750     1.49100
Zn885      Zn  0.69483352  0.95829836  0.02658921     1.49500
O886        O  0.72226753  0.97092068  0.47281567    -1.84100
O887        O  0.77659837  0.55526670  0.45894855    -0.74800
O888        O  0.67067221  0.97631323  0.38153407    -0.74600
O889        O  0.79651536  0.90717004  0.43631351    -0.74100
O890        O  0.71717640  0.56298095  0.42168457    -0.74800
O891        O  0.82545504  0.96743173  0.45874199    -0.74400
O892        O  0.70899325  0.91741650  0.38775272    -0.75000
O893        O  0.68693662  0.89575842  0.03570193    -0.74400
O894        O  0.63053963  0.52144756  0.46834673    -0.75100
O895        O  0.70678087  0.86784161  0.47406989    -0.74500
O896        O  0.63715564  0.98241100  0.02679018    -0.75000
O897        O  0.72426935  0.98556074  0.07639943    -0.74900
O898        O  0.78480569  0.50762250  0.04777279    -0.74700
C899        C  0.75315086  0.57677970  0.43428543     0.77100
C900        C  0.68380458  0.94087254  0.36697619     0.77600
C901        C  0.82843258  0.93134765  0.44101765     0.76600
C902        C  0.69019204  0.86436946  0.01058276     0.76900
C903        C  0.61601964  0.50752707  0.50354586     0.78100
C904        C  0.76026328  0.00337973  0.07954563     0.77100
C905        C  0.52522102  0.52019406  0.07591068     0.80200
N906        N  0.00690704  0.55574677  0.06016233    -0.78100
C907        C  0.52139048  0.57360715  0.02396874     0.82600
N908        N  0.55571595  0.55686645  0.50399122    -0.78100
C909        C  0.57495915  0.52182985  0.02011595     0.82700
N910        N  0.55957733  0.00360353  0.05614932    -0.79800
C911        C  0.66928834  0.92462545  0.32590907     0.80200
N912        N  0.63493100  0.94121414  0.30614815    -0.78100
C913        C  0.61954824  0.92298770  0.27011533     0.82600
N914        N  0.63879264  0.88795195  0.25398983    -0.78100
C915        C  0.67311989  0.87121301  0.27396661     0.82700
N916        N  0.68760390  0.88907344  0.31016024    -0.79800
Zn917      Zn  0.91849938  0.94652012  0.23507014     1.49700
Zn918      Zn  0.49967379  0.98651788  0.27659172     1.49400
Zn919      Zn  0.50870701  0.93729906  0.18668967     1.49100
Zn920      Zn  0.96036854  0.52752639  0.19481862     1.49500
O921        O  0.97223987  0.97389733  0.22281699    -1.84100
O922        O  0.90970098  0.93719492  0.29777255    -0.74800
O923        O  0.55735056  0.96240322  0.27679192    -0.74600
O924        O  0.97733183  0.88183825  0.17168526    -0.74100
O925        O  0.97023734  0.95925601  0.32640122    -0.74800
O926        O  0.91791050  0.88955016  0.20894882    -0.74400
O927        O  0.56396697  0.92337069  0.21834632    -0.75000
O928        O  0.98551639  0.52740311  0.13775383    -0.74400
O929        O  0.50757426  0.54905773  0.28570457    -0.75100
O930        O  0.52383511  0.96850517  0.13153510    -0.74500
O931        O  0.98772982  0.57697599  0.22407235    -0.75000
O932        O  0.89799306  0.53764875  0.18631426    -0.74900
O933        O  0.86905367  0.97738556  0.20873966    -0.74700
C934        C  0.93424309  0.94143758  0.32954636     0.77100
C935        C  0.57848695  0.93728914  0.25354619     0.77600
C936        C  0.94135844  0.86803810  0.18428614     0.76600
C937        C  0.51070444  0.00394639  0.11697743     0.76900
C938        C  0.00431982  0.58044715  0.26058541     0.78100
C939        C  0.86607596  0.51347063  0.19101666     0.77100
C940        C  0.77017210  0.57707045  0.16983209     0.80200
N941        N  0.80632059  0.56238241  0.18813592    -0.78100
C942        C  0.82538403  0.52685607  0.17349797     0.82600
N943        N  0.80941052  0.00679657  0.13898601    -0.78100
C944        C  0.77347866  0.52124946  0.12022463     0.82700
N945        N  0.75379465  0.55650352  0.13562793    -0.79800
C946        C  0.52140092  0.62121076  0.27397808     0.80200
N947        N  0.55572865  0.63795057  0.25400235    -0.78100
C948        C  0.57497187  0.67298970  0.27012404     0.82600
N949        N  0.55958724  0.69122054  0.30615350    -0.78100
C950        C  0.52522730  0.67463133  0.32591281     0.82700
N951        N  0.00691343  0.63907540  0.31016708    -0.79800
C952        C  0.67311275  0.82360534  0.02397527     0.80200
N953        N  0.68760094  0.80574147  0.06016480    -0.78100
C954        C  0.66928718  0.77018578  0.07591113     0.82600
N955        N  0.63492687  0.75359653  0.05615182    -0.78100
C956        C  0.61954148  0.77182680  0.02012220     0.82700
N957        N  0.63878440  0.80686571  0.50399968    -0.79800
Zn958      Zn  0.69484966  0.73652292  0.27658960     1.49700
Zn959      Zn  0.68580845  0.68729139  0.18669066     1.49400
Zn960      Zn  0.73414821  0.77752226  0.19481367     1.49100
Zn961      Zn  0.77601507  0.69651483  0.23507170     1.49500
O962        O  0.72227802  0.72389368  0.22281524    -1.84100
O963        O  0.63717090  0.71241007  0.27679441    -0.74800
O964        O  0.67067498  0.71849554  0.13153540    -0.74600
O965        O  0.70678535  0.82697582  0.22405956    -0.74100
O966        O  0.63055133  0.67336659  0.21835535    -0.74800
O967        O  0.68695343  0.79906315  0.28569794    -0.74400
O968        O  0.70900103  0.77739283  0.13774918    -0.75000
O969        O  0.82546187  0.72738642  0.20874945    -0.74400
O970        O  0.71718191  0.63182980  0.17168515    -0.75100
O971        O  0.79652395  0.78764393  0.18631157    -0.74500
O972        O  0.77660585  0.63954690  0.20894589    -0.75000
O973        O  0.78480750  0.68718214  0.29777318    -0.74900
O974        O  0.72428169  0.70926347  0.32640189    -0.74700
C975        C  0.61603310  0.68729115  0.25355315     0.77100
C976        C  0.68380799  0.75393637  0.11697561     0.77600
C977        C  0.69020082  0.83044979  0.26057427     0.76600
C978        C  0.82844032  0.76346902  0.19102148     0.76900
C979        C  0.75315674  0.61803283  0.18428366     0.78100
C980        C  0.76026852  0.69143355  0.32954702     0.77100
C981        C  0.92433536  0.86774746  0.91983388     0.80200
N982        N  0.88818789  0.88243603  0.93813775    -0.78100
C983        C  0.86912413  0.91796240  0.92349937     0.82600
N984        N  0.88509636  0.93802115  0.88898649    -0.78100
C985        C  0.92102748  0.92356793  0.87022534     0.82700
N986        N  0.94071180  0.88831406  0.88562924    -0.79800
C987        C  0.86913251  0.77685498  0.67350418     0.80200
N988        N  0.88819684  0.81238270  0.68814141    -0.78100
C989        C  0.92434367  0.82707402  0.66983601     0.82600
N990        N  0.94071866  0.80650889  0.63563093    -0.78100
C991        C  0.92103371  0.77125280  0.62022870     0.82700
N992        N  0.88510313  0.75679704  0.63899143    -0.79800
Zn993      Zn  0.91849660  0.74830232  0.98507357     1.49700
Zn994      Zn  0.50870146  0.75752774  0.93669071     1.49400
Zn995      Zn  0.49966343  0.70829683  0.52659103     1.49100
Zn996      Zn  0.96036536  0.66729721  0.94481339     1.49500
O997        O  0.97223404  0.72092542  0.97281612    -1.84100
O998        O  0.91790323  0.80527062  0.95894784    -0.74800
O999        O  0.56395907  0.77145240  0.96835548    -0.74600
O1000       O  0.97023367  0.73555707  0.57640377    -0.74100
O1001       O  0.97732571  0.81298854  0.92168637    -0.74800
O1002       O  0.90970513  0.75763332  0.54777520    -0.74400
O1003       O  0.55734262  0.73240748  0.52679414    -0.75000
O1004       O  0.98772759  0.61784512  0.97406072    -0.74400
O1005       O  0.52383651  0.72632384  0.88153543    -0.75100
O1006       O  0.50755782  0.64575672  0.53570057    -0.74500
O1007       O  0.98551362  0.66742497  0.88775011    -0.75000
O1008       O  0.89799008  0.65717392  0.93631001    -0.74900
O1009       O  0.86905025  0.71742874  0.95875142    -0.74700
C1010       C  0.94135134  0.82678509  0.93428531     0.77100
C1011       C  0.57847926  0.75752658  0.00355233     0.77600
C1012       C  0.93424543  0.75338395  0.57954907     0.76600
C1013       C  0.00431083  0.61437051  0.51057638     0.78100
C1014       C  0.51070574  0.69088188  0.86697648     0.78100
C1015       C  0.86607276  0.68134686  0.94102187     0.77100
C1016       C  0.82538075  0.66796047  0.92350365     0.80200
N1017       N  0.80631541  0.63243324  0.93814094    -0.78100
C1018       C  0.77016783  0.61774300  0.91983483     0.82600
N1019       N  0.75379367  0.63830842  0.88562881    -0.78100
C1020       C  0.77347992  0.67356371  0.87022666     0.82700
N1021       N  0.80941067  0.68801860  0.88899031    -0.79800
Zn1022     Zn  0.77600852  0.49829685  0.98507068     1.49700
Zn1023     Zn  0.68579968  0.50751987  0.93668907     1.49400
Zn1024     Zn  0.73414035  0.91729217  0.94481743     1.49100
Zn1025     Zn  0.69483356  0.95829836  0.52658936     1.49500
O1026       O  0.72226759  0.97092068  0.97281576    -1.84100
O1027       O  0.77659840  0.55526667  0.95894853    -0.74800
O1028       O  0.67067227  0.97631326  0.88153409    -0.74600
O1029       O  0.79651528  0.90717008  0.93631342    -0.74100
O1030       O  0.71717644  0.56298095  0.92168454    -0.74800
O1031       O  0.82545500  0.96743173  0.95874197    -0.74400
O1032       O  0.70899329  0.91741651  0.88775266    -0.75000
O1033       O  0.68693667  0.89575839  0.53570206    -0.74400
O1034       O  0.63053962  0.52144761  0.96834677    -0.75100
O1035       O  0.70678089  0.86784155  0.97406984    -0.74500
O1036       O  0.63715565  0.98241099  0.52679016    -0.75000
O1037       O  0.72426938  0.98556077  0.57639947    -0.74900
O1038       O  0.78480557  0.50762245  0.54777277    -0.74700
C1039       C  0.75315088  0.57677970  0.93428540     0.77100
C1040       C  0.68380457  0.94087262  0.86697616     0.77600
C1041       C  0.82843253  0.93134768  0.94101761     0.76600
C1042       C  0.69019204  0.86436947  0.51058280     0.76900
C1043       C  0.61601964  0.50752717  0.00354591     0.78100
C1044       C  0.76026330  0.00337978  0.57954563     0.77100
C1045       C  0.52522105  0.52019406  0.57591060     0.80200
N1046       N  0.00690708  0.55574675  0.56016228    -0.78100
C1047       C  0.52139053  0.57360718  0.52396870     0.82600
N1048       N  0.55571592  0.55686646  0.00399127    -0.78100
C1049       C  0.57495916  0.52182983  0.52011586     0.82700
N1050       N  0.55957735  0.00360353  0.55614924    -0.79800
C1051       C  0.66928835  0.92462547  0.82590908     0.80200
N1052       N  0.63493095  0.94121424  0.80614817    -0.78100
C1053       C  0.61954817  0.92298767  0.77011541     0.82600
N1054       N  0.63879246  0.88795191  0.75398998    -0.78100
C1055       C  0.67311986  0.87121303  0.77396663     0.82700
N1056       N  0.68760387  0.88907354  0.81016022    -0.79800
Zn1057     Zn  0.91849939  0.94652013  0.73507006     1.49700
Zn1058     Zn  0.49967381  0.98651788  0.77659166     1.49400
Zn1059     Zn  0.50870683  0.93729906  0.68668959     1.49100
Zn1060     Zn  0.96036858  0.52752639  0.69481854     1.49500
O1061       O  0.97223989  0.97389734  0.72281690    -1.84100
O1062       O  0.90970106  0.93719494  0.79777252    -0.74800
O1063       O  0.55735056  0.96240326  0.77679191    -0.74600
O1064       O  0.97733186  0.88183825  0.67168518    -0.74100
O1065       O  0.97023735  0.95925603  0.82640136    -0.74800
O1066       O  0.91791053  0.88955017  0.70894873    -0.74400
O1067       O  0.56396695  0.92337071  0.71834631    -0.75000
O1068       O  0.98551643  0.52740311  0.63775374    -0.74400
O1069       O  0.50757429  0.54905773  0.78570448    -0.75100
O1070       O  0.52383510  0.96850517  0.63153503    -0.74500
O1071       O  0.98772985  0.57697599  0.72407226    -0.75000
O1072       O  0.89799310  0.53764875  0.68631417    -0.74900
O1073       O  0.86905356  0.97738556  0.70873960    -0.74700
C1074       C  0.93424309  0.94143760  0.82954639     0.77100
C1075       C  0.57848690  0.93728917  0.75354622     0.77600
C1076       C  0.94135847  0.86803811  0.68428606     0.76600
C1077       C  0.51070447  0.00394639  0.61697736     0.76900
C1078       C  0.00431986  0.58044715  0.76058532     0.78100
C1079       C  0.86607601  0.51347064  0.69101657     0.77100
C1080       C  0.77017209  0.57707039  0.66983225     0.80200
N1081       N  0.80632062  0.56238236  0.68813605    -0.78100
C1082       C  0.82538407  0.52685607  0.67349793     0.82600
N1083       N  0.80941057  0.00679665  0.63898597    -0.78100
C1084       C  0.77347863  0.52124948  0.62022465     0.82700
N1085       N  0.75379463  0.55650352  0.63562809    -0.79800
C1086       C  0.52140090  0.62121073  0.77397802     0.80200
N1087       N  0.55572864  0.63795065  0.75400231    -0.78100
C1088       C  0.57497182  0.67298968  0.77012400     0.82600
N1089       N  0.55958722  0.69122054  0.80615354    -0.78100
C1090       C  0.52522718  0.67463128  0.82591275     0.82700
N1091       N  0.00691340  0.63907538  0.81016705    -0.79800
C1092       C  0.67311277  0.82360534  0.52397522     0.80200
N1093       N  0.68760097  0.80574146  0.56016474    -0.78100
C1094       C  0.66928720  0.77018577  0.57591107     0.82600
N1095       N  0.63492691  0.75359653  0.55615175    -0.78100
C1096       C  0.61954152  0.77182680  0.52012211     0.82700
N1097       N  0.63878437  0.80686571  0.00399975    -0.79800
Zn1098     Zn  0.69484968  0.73652293  0.77658955     1.49700
Zn1099     Zn  0.68580847  0.68729139  0.68669060     1.49400
Zn1100     Zn  0.73414824  0.77752226  0.69481359     1.49100
Zn1101     Zn  0.77601510  0.69651484  0.73507186     1.49500
O1102       O  0.72227806  0.72389368  0.72281519    -1.84100
O1103       O  0.63717092  0.71241006  0.77679439    -0.74800
O1104       O  0.67067502  0.71849554  0.63153535    -0.74600
O1105       O  0.70678539  0.82697585  0.72405960    -0.74100
O1106       O  0.63055133  0.67336659  0.71835534    -0.74800
O1107       O  0.68695322  0.79906314  0.78569788    -0.74400
O1108       O  0.70900105  0.77739284  0.63774914    -0.75000
O1109       O  0.82546192  0.72738649  0.70874962    -0.74400
O1110       O  0.71718192  0.63182976  0.67168533    -0.75100
O1111       O  0.79652398  0.78764390  0.68631147    -0.74500
O1112       O  0.77660594  0.63954695  0.70894593    -0.75000
O1113       O  0.78480749  0.68718213  0.79777320    -0.74900
O1114       O  0.72428173  0.70926349  0.82640197    -0.74700
C1115       C  0.61603312  0.68729119  0.75355319     0.77100
C1116       C  0.68380800  0.75393638  0.61697558     0.77600
C1117       C  0.69020076  0.83044983  0.76057427     0.76600
C1118       C  0.82844035  0.76346902  0.69102146     0.76900
C1119       C  0.75315679  0.61803282  0.68428383     0.78100
C1120       C  0.76026854  0.69143353  0.82954705     0.77100
loop_ 
_geom_bond_atom_site_label_1 
_geom_bond_atom_site_label_2 
_geom_bond_distance 
_geom_bond_site_symmetry_2 
_ccdc_geom_bond_type 
C1            N2   1.359       .  A
C1            N6   1.360       .  A
C1           C30   1.471       .  S
N2            C3   1.353       .  A
C3            N4   1.356       .  A
C3           C61   1.460       .  S
N4            C5   1.357       .  A
C5            N6   1.363       .  A
C5           C94   1.462       .  S
C7            N8   1.353       .  A
C7           N12   1.356       .  A
C7          C138   1.460       .  S
N8            C9   1.359       .  A
C9           N10   1.360       .  A
C9           C96   1.471       .  S
N10          C11   1.363       .  A
C11          N12   1.357       .  A
C11          C32   1.462       .  S
Zn13         O17   1.941       .  S
Zn13         O18   1.977       .  S
Zn13         O29   2.017       .  S
Zn13        O162   2.018       .  S
Zn14        O577   1.988   1_455  S
Zn14         O19   2.056       .  S
Zn14         O25   2.054       .  S
Zn14        O581   2.065   1_455  S
Zn15        O717   1.945   1_554  S
Zn15         O23   1.972   1_655  S
Zn15         O26   2.009   1_655  S
Zn15        O580   2.017       .  S
Zn16         O17   1.944       .  S
Zn16         O24   2.007       .  S
Zn16         O27   1.966       .  S
Zn16         O28   2.011       .  S
O17        Zn574   1.988       .  S
O17        Zn715   1.945       .  S
O18          C30   1.270       .  A
O19          C31   1.278       .  A
O20        Zn575   2.017       .  S
O20          C32   1.271       .  A
O21        Zn574   2.065       .  S
O21          C30   1.278       .  A
O22        Zn153   2.018   1_554  S
O22          C32   1.273       .  A
O23         C171   1.268       .  A
O24         C173   1.269       .  A
O25          C34   1.277       .  A
O26         C593   1.272       .  A
O27         C594   1.268       .  A
O28          C35   1.272       .  A
O29          C35   1.271       .  A
C31         C256   1.467       .  S
C31         O163   1.268       .  A
C33         C627   1.457       .  S
C33         O164   1.269   1_554  A
C33         O586   1.272       .  A
C34         C110   1.466       .  S
C34         O587   1.268   1_455  A
C35          C36   1.460       .  S
C36          N37   1.353       .  A
C36          N41   1.356       .  A
N37          C38   1.359       .  A
C38          N39   1.360       .  A
C38          C59   1.471       .  S
N39          C40   1.363       .  A
C40          N41   1.357       .  A
C40         C140   1.462       .  S
Zn42        O326   1.941       .  S
Zn42         O47   1.977   1_565  S
Zn42        O331   2.017       .  S
Zn42        O198   2.018   1_565  S
Zn43        O326   1.988   1_545  S
Zn43         O50   2.065       .  S
Zn43         O54   2.056       .  S
Zn43        O328   2.054   1_545  S
Zn44         O46   1.944       .  S
Zn44         O49   2.011       .  S
Zn44         O52   1.966       .  S
Zn44         O55   2.007       .  S
Zn45        O186   1.945   1_554  S
Zn45         O53   2.009       .  S
Zn45         O56   1.972       .  S
Zn45         O57   2.017       .  S
O46        Zn322   1.941       .  S
O46        Zn323   1.988       .  S
O46        Zn185   1.945       .  S
O47          C59   1.270       .  A
O48        Zn323   2.054       .  S
O48          C60   1.277       .  A
O49          C61   1.272       .  A
O50          C59   1.278       .  A
O51        Zn322   2.017       .  S
O51          C61   1.271       .  A
O52          C60   1.268       .  A
O53          C62   1.272       .  A
O54          C63   1.278       .  A
O55         C202   1.269       .  A
O56         C483   1.268       .  A
O57          C64   1.271       .  A
O58        Zn182   2.018   1_544  S
O58         C344   1.273       .  A
C60          C71   1.466       .  S
C62         C112   1.457       .  S
C62         O195   1.269   1_554  A
C63         C209   1.467       .  S
C63         O476   1.268   1_545  A
C64         C384   1.462       .  S
C64         O338   1.273       .  A
C65         N626   1.356       .  A
C65         N350   1.355       .  A
C65         C377   1.466       .  S
N66         C625   1.356       .  A
N66         C627   1.352       .  A
C67         N626   1.352       .  A
C67         N208   1.359       .  A
C67         C593   1.457       .  S
N68         C207   1.359       .  A
N68         C209   1.359       .  A
C69         N208   1.359       .  A
C69         N350   1.362       .  A
C69         C203   1.467       .  S
N70         C345   1.355       .  A
N70         C349   1.362       .  A
C71          N72   1.355       .  A
C71          N76   1.356       .  A
N72          C73   1.362       .  A
C73          N74   1.359       .  A
C73          C95   1.467       .  S
N74          C75   1.359       .  A
C75          N76   1.352       .  A
C75         C137   1.457       .  S
Zn77         O81   1.941       .  S
Zn77         O82   2.018       .  S
Zn77         O86   1.977       .  S
Zn77         O93   2.017       .  S
Zn78        O641   1.945       .  S
Zn78         O83   1.972   1_655  S
Zn78        O645   2.017       .  S
Zn78        O369   2.009   1_655  S
Zn79        O641   1.988   1_455  S
Zn79         O87   2.056       .  S
Zn79         O90   2.054       .  S
Zn79        O644   2.065   1_455  S
Zn80        O361   1.944   1_545  S
Zn80         O88   1.966       .  S
Zn80         O91   2.007       .  S
Zn80         O92   2.011       .  S
O81        Zn638   1.945       .  S
O81        Zn639   1.988       .  S
O81        Zn360   1.944       .  S
O82          C94   1.273       .  A
O83          C95   1.268       .  A
O84        Zn639   2.065       .  S
O84          C96   1.278       .  A
O85        Zn638   2.017       .  S
O85          C94   1.271       .  A
O86          C96   1.270       .  A
O87          C95   1.278       .  A
O88         C937   1.268       .  A
O89        Zn358   2.009   1_445  S
O89         C658   1.272       .  A
O90          C97   1.277       .  A
O91          C98   1.269       .  A
O92          C99   1.272       .  A
O93         C379   1.271       .  A
C97         C345   1.466       .  S
C97         O928   1.268   1_455  A
C98         C666   1.457       .  S
C98         O649   1.272       .  A
C99         C102   1.460       .  S
C99         O373   1.271   1_545  A
C100        N101   1.359       .  A
C100        N105   1.360       .  A
C100        C139   1.471       .  S
N101        C102   1.353       .  A
C102        N383   1.356       .  A
N103        C382   1.356       .  A
N103        C384   1.357       .  A
C104        N105   1.363       .  A
C104        N383   1.357       .  A
C104        C344   1.462       .  S
C106        N107   1.359       .  A
C106        N671   1.352       .  A
C106        C658   1.457       .  S
N107        C108   1.359       .  A
C108        N109   1.362       .  A
C108        C135   1.467       .  S
N109        C110   1.355       .  A
C110        N671   1.356       .  A
N111        C666   1.352       .  A
N111        C670   1.356       .  A
C112        N113   1.352       .  A
C112        N257   1.359       .  A
N113        C114   1.356       .  A
C114        N115   1.355       .  A
C114        C136   1.466       .  S
N115        C116   1.362       .  A
C116        N257   1.359       .  A
C116        C171   1.467       .  S
N117        C252   1.359       .  A
N117        C256   1.359       .  A
Zn118       O122   1.945       .  S
Zn118       O123   1.972       .  S
Zn118       O127   2.009       .  S
Zn118       O134   2.017       .  S
Zn119       O122   1.988       .  S
Zn119       O124   2.054       .  S
Zn119       O126   2.056       .  S
Zn119       O130   2.065       .  S
Zn120       O122   1.944       .  S
Zn120       O125   2.007       .  S
Zn120       O128   1.966       .  S
Zn120       O131   2.011       .  S
Zn121       O122   1.941       .  S
Zn121       O129   2.017       .  S
Zn121       O132   1.977       .  S
Zn121       O133   2.018       .  S
O123        C135   1.268       .  A
O124        C136   1.277       .  A
O125        C137   1.269       .  A
O126        C135   1.278       .  A
O127        C137   1.272       .  A
O128        C136   1.268       .  A
O129        C138   1.271       .  A
O130        C139   1.278       .  A
O131        C138   1.272       .  A
O132        C139   1.270       .  A
O133        C140   1.273       .  A
O134        C140   1.271       .  A
C141        N142   1.359       .  A
C141        N146   1.360       .  A
C141        C170   1.471       .  S
N142        C143   1.353       .  A
C143        N144   1.356       .  A
C143        C201   1.460       .  S
N144        C145   1.357       .  A
C145        N146   1.363       .  A
C145        C234   1.462       .  S
C147        N148   1.353       .  A
C147        N152   1.356       .  A
C147        C278   1.460       .  S
N148        C149   1.359       .  A
C149        N150   1.360       .  A
C149        C236   1.471       .  S
N150        C151   1.363       .  A
C151        N152   1.357       .  A
C151        C172   1.462       .  S
Zn153       O157   1.941       .  S
Zn153       O158   1.977       .  S
Zn153       O169   2.017       .  S
Zn154       O717   1.988   1_455  S
Zn154       O159   2.056       .  S
Zn154       O721   2.065   1_455  S
Zn154       O165   2.054       .  S
Zn155       O577   1.945       .  S
Zn155       O720   2.017       .  S
Zn155       O163   1.972   1_655  S
Zn155       O166   2.009   1_655  S
Zn156       O157   1.944       .  S
Zn156       O164   2.007       .  S
Zn156       O167   1.966       .  S
Zn156       O168   2.011       .  S
O157       Zn714   1.988       .  S
O157       Zn575   1.945   1_556  S
O158        C170   1.270       .  A
O159        C171   1.278   1_556  A
O160       Zn715   2.017       .  S
O160        C172   1.271       .  A
O161       Zn714   2.065       .  S
O161        C170   1.278       .  A
O162        C172   1.273       .  A
O165        C174   1.277       .  A
O166        C733   1.272       .  A
O167        C734   1.268       .  A
O168        C175   1.272       .  A
O169        C175   1.271       .  A
C173        C767   1.457       .  S
C173        O726   1.272       .  A
C174        C250   1.466       .  S
C174        O727   1.268   1_455  A
C175        C176   1.460       .  S
C176        N177   1.353       .  A
C176        N181   1.356       .  A
N177        C178   1.359       .  A
C178        N179   1.360       .  A
C178        C199   1.471       .  S
N179        C180   1.363       .  A
C180        N181   1.357       .  A
C180        C280   1.462       .  S
Zn182       O466   1.941       .  S
Zn182       O187   1.977   1_565  S
Zn182       O471   2.017       .  S
Zn183       O466   1.988   1_545  S
Zn183       O468   2.054   1_545  S
Zn183       O190   2.065       .  S
Zn183       O194   2.056       .  S
Zn184       O186   1.944       .  S
Zn184       O189   2.011       .  S
Zn184       O192   1.966       .  S
Zn184       O195   2.007       .  S
Zn185       O193   2.009       .  S
Zn185       O196   1.972       .  S
Zn185       O197   2.017       .  S
O186       Zn462   1.941       .  S
O186       Zn463   1.988       .  S
O187        C199   1.270       .  A
O188       Zn463   2.054       .  S
O188        C200   1.277       .  A
O189        C201   1.272       .  A
O190        C199   1.278       .  A
O191       Zn462   2.017       .  S
O191        C201   1.271       .  A
O192        C200   1.268       .  A
O193        C202   1.272       .  A
O194        C203   1.278   1_556  A
O196        C343   1.268       .  A
O197        C204   1.271       .  A
O198        C484   1.273       .  A
C200        C211   1.466       .  S
C202        C252   1.457       .  S
C203        O336   1.268   1_545  A
C204        C524   1.462       .  S
C204        O478   1.273       .  A
C205        N766   1.356       .  A
C205        N490   1.355       .  A
C205        C517   1.466       .  S
N206        C765   1.356       .  A
N206        C767   1.352       .  A
C207        N766   1.352       .  A
C207        C733   1.457       .  S
C209        N490   1.362       .  A
N210        C485   1.355       .  A
N210        C489   1.362       .  A
C211        N212   1.355       .  A
C211        N216   1.356       .  A
N212        C213   1.362       .  A
C213        N214   1.359       .  A
C213        C235   1.467       .  S
N214        C215   1.359       .  A
C215        N216   1.352       .  A
C215        C277   1.457       .  S
Zn217       O221   1.941       .  S
Zn217       O222   2.018       .  S
Zn217       O226   1.977       .  S
Zn217       O233   2.017       .  S
Zn218       O781   1.945       .  S
Zn218       O223   1.972   1_655  S
Zn218       O785   2.017       .  S
Zn218       O509   2.009   1_655  S
Zn219       O781   1.988   1_455  S
Zn219       O784   2.065   1_455  S
Zn219       O227   2.056       .  S
Zn219       O230   2.054       .  S
Zn220       O501   1.944   1_545  S
Zn220       O228   1.966       .  S
Zn220       O231   2.007       .  S
Zn220       O232   2.011       .  S
O221       Zn778   1.945       .  S
O221       Zn779   1.988       .  S
O221       Zn500   1.944       .  S
O222        C234   1.273       .  A
O223        C235   1.268       .  A
O224       Zn779   2.065       .  S
O224        C236   1.278       .  A
O225       Zn778   2.017       .  S
O225        C234   1.271       .  A
O226        C236   1.270       .  A
O227        C235   1.278       .  A
O228       C1077   1.268       .  A
O229       Zn498   2.009   1_445  S
O229        C798   1.272       .  A
O230        C237   1.277       .  A
O231        C238   1.269       .  A
O232        C239   1.272       .  A
O233        C519   1.271       .  A
C237        C485   1.466       .  S
C237       O1068   1.268   1_455  A
C238        C806   1.457       .  S
C238        O789   1.272       .  A
C239        C242   1.460       .  S
C239        O513   1.271   1_545  A
C240        N241   1.359       .  A
C240        N245   1.360       .  A
C240        C279   1.471       .  S
N241        C242   1.353       .  A
C242        N523   1.356       .  A
N243        C522   1.356       .  A
N243        C524   1.357       .  A
C244        N523   1.357       .  A
C244        N245   1.363       .  A
C244        C484   1.462       .  S
C246        N247   1.359       .  A
C246        N811   1.352       .  A
C246        C798   1.457       .  S
N247        C248   1.359       .  A
C248        N249   1.362       .  A
C248        C275   1.467       .  S
N249        C250   1.355       .  A
C250        N811   1.356       .  A
N251        C806   1.352       .  A
N251        C810   1.356       .  A
C252        N253   1.352       .  A
N253        C254   1.356       .  A
C254        N255   1.355       .  A
C254        C276   1.466       .  S
N255        C256   1.362       .  A
Zn258       O262   1.945       .  S
Zn258       O263   1.972       .  S
Zn258       O267   2.009       .  S
Zn258       O274   2.017       .  S
Zn259       O262   1.988       .  S
Zn259       O264   2.054       .  S
Zn259       O266   2.056       .  S
Zn259       O270   2.065       .  S
Zn260       O262   1.944       .  S
Zn260       O265   2.007       .  S
Zn260       O268   1.966       .  S
Zn260       O271   2.011       .  S
Zn261       O262   1.941       .  S
Zn261       O269   2.017       .  S
Zn261       O272   1.977       .  S
Zn261       O273   2.018       .  S
O263        C275   1.268       .  A
O264        C276   1.277       .  A
O265        C277   1.269       .  A
O266        C275   1.278       .  A
O267        C277   1.272       .  A
O268        C276   1.268       .  A
O269        C278   1.271       .  A
O270        C279   1.278       .  A
O271        C278   1.272       .  A
O272        C279   1.270       .  A
O273        C280   1.273       .  A
O274        C280   1.271       .  A
C281        N282   1.359       .  A
C281        N286   1.360       .  A
C281        C310   1.471       .  S
N282        C283   1.353       .  A
C283        N284   1.356       .  A
C283        C341   1.460       .  S
N284        C285   1.357       .  A
C285        N286   1.363       .  A
C285        C374   1.462       .  S
C287        N288   1.353       .  A
C287        N292   1.356       .  A
C287        C418   1.460       .  S
N288        C289   1.359       .  A
C289        N290   1.360       .  A
C289        C376   1.471       .  S
N290        C291   1.363       .  A
C291        N292   1.357       .  A
C291        C312   1.462       .  S
Zn293       O297   1.941       .  S
Zn293       O298   1.977       .  S
Zn293       O442   2.018       .  S
Zn293       O309   2.017       .  S
Zn294       O857   1.988   1_455  S
Zn294       O299   2.056       .  S
Zn294       O861   2.065   1_455  S
Zn294       O305   2.054       .  S
Zn295       O997   1.945   1_554  S
Zn295       O860   2.017       .  S
Zn295       O303   1.972   1_655  S
Zn295       O306   2.009   1_655  S
Zn296       O297   1.944       .  S
Zn296       O304   2.007       .  S
Zn296       O307   1.966       .  S
Zn296       O308   2.011       .  S
O297       Zn854   1.988       .  S
O297       Zn995   1.945       .  S
O298        C310   1.270       .  A
O299        C311   1.278       .  A
O300       Zn855   2.017       .  S
O300        C312   1.271       .  A
O301       Zn854   2.065       .  S
O301        C310   1.278       .  A
O302       Zn433   2.018   1_554  S
O302        C312   1.273       .  A
O303        C451   1.268       .  A
O304        C453   1.269       .  A
O305        C314   1.277       .  A
O306        C873   1.272       .  A
O307        C874   1.268       .  A
O308        C315   1.272       .  A
O309        C315   1.271       .  A
C311        C536   1.467       .  S
C311        O443   1.268       .  A
C313        C907   1.457       .  S
C313        O444   1.269   1_554  A
C313        O866   1.272       .  A
C314        C390   1.466       .  S
C314        O867   1.268   1_455  A
C315        C316   1.460       .  S
C316        N317   1.353       .  A
C316        N321   1.356       .  A
N317        C318   1.359       .  A
C318        N319   1.360       .  A
C318        C339   1.471       .  S
N319        C320   1.363       .  A
C320        N321   1.357       .  A
C320        C420   1.462       .  S
Zn322       O327   1.977       .  S
Zn322       O478   2.018       .  S
Zn323       O330   2.065       .  S
Zn323       O334   2.056       .  S
Zn324       O326   1.944       .  S
Zn324       O329   2.011       .  S
Zn324       O332   1.966       .  S
Zn324       O335   2.007       .  S
Zn325       O466   1.945   1_554  S
Zn325       O333   2.009       .  S
Zn325       O336   1.972       .  S
Zn325       O337   2.017       .  S
O326       Zn465   1.945       .  S
O327        C339   1.270       .  A
O328        C340   1.277       .  A
O329        C341   1.272       .  A
O330        C339   1.278       .  A
O331        C341   1.271       .  A
O332        C340   1.268       .  A
O333        C342   1.272       .  A
O334        C343   1.278       .  A
O335        C482   1.269       .  A
O337        C344   1.271   1_565  A
O338       Zn462   2.018   1_554  S
C340        C351   1.466       .  S
C342        C392   1.457       .  S
C342        O475   1.269   1_554  A
C343        C489   1.467       .  S
C345        N906   1.356       .  A
N346        C905   1.356       .  A
N346        C907   1.352       .  A
C347        N906   1.352       .  A
C347        N488   1.359       .  A
C347        C873   1.457       .  S
N348        C487   1.359       .  A
N348        C489   1.359       .  A
C349        N488   1.359       .  A
C349        C483   1.467       .  S
C351        N352   1.355       .  A
C351        N356   1.356       .  A
N352        C353   1.362       .  A
C353        N354   1.359       .  A
C353        C375   1.467       .  S
N354        C355   1.359       .  A
C355        N356   1.352       .  A
C355        C417   1.457       .  S
Zn357       O361   1.941       .  S
Zn357       O362   2.018       .  S
Zn357       O366   1.977       .  S
Zn357       O373   2.017       .  S
Zn358       O921   1.945       .  S
Zn358       O363   1.972   1_655  S
Zn358       O925   2.017       .  S
Zn359       O921   1.988   1_455  S
Zn359       O924   2.065   1_455  S
Zn359       O367   2.056       .  S
Zn359       O370   2.054       .  S
Zn360       O368   1.966       .  S
Zn360       O371   2.007       .  S
Zn360       O372   2.011       .  S
O361       Zn918   1.945       .  S
O361       Zn919   1.988       .  S
O362        C374   1.273       .  A
O363        C375   1.268       .  A
O364       Zn919   2.065       .  S
O364        C376   1.278       .  A
O365       Zn918   2.017       .  S
O365        C374   1.271       .  A
O366        C376   1.270       .  A
O367        C375   1.278       .  A
O368        C657   1.268       .  A
O369        C938   1.272       .  A
O370        C377   1.277   1_565  A
O371        C378   1.269       .  A
O372        C379   1.272       .  A
C377        O648   1.268   1_455  A
C378        C946   1.457       .  S
C378        O929   1.272       .  A
C379        C382   1.460       .  S
C380        N381   1.359       .  A
C380        N385   1.360       .  A
C380        C419   1.471       .  S
N381        C382   1.353       .  A
C384        N385   1.363       .  A
C386        N387   1.359       .  A
C386        N951   1.352       .  A
C386        C938   1.457       .  S
N387        C388   1.359       .  A
C388        N389   1.362       .  A
C388        C415   1.467       .  S
N389        C390   1.355       .  A
C390        N951   1.356       .  A
N391        C946   1.352       .  A
N391        C950   1.356       .  A
C392        N393   1.352       .  A
C392        N537   1.359       .  A
N393        C394   1.356       .  A
C394        N395   1.355       .  A
C394        C416   1.466       .  S
N395        C396   1.362       .  A
C396        N537   1.359       .  A
C396        C451   1.467       .  S
N397        C532   1.359       .  A
N397        C536   1.359       .  A
Zn398       O402   1.945       .  S
Zn398       O403   1.972       .  S
Zn398       O407   2.009       .  S
Zn398       O414   2.017       .  S
Zn399       O402   1.988       .  S
Zn399       O404   2.054       .  S
Zn399       O406   2.056       .  S
Zn399       O410   2.065       .  S
Zn400       O402   1.944       .  S
Zn400       O405   2.007       .  S
Zn400       O408   1.966       .  S
Zn400       O411   2.011       .  S
Zn401       O402   1.941       .  S
Zn401       O409   2.017       .  S
Zn401       O412   1.977       .  S
Zn401       O413   2.018       .  S
O403        C415   1.268       .  A
O404        C416   1.277       .  A
O405        C417   1.269       .  A
O406        C415   1.278       .  A
O407        C417   1.272       .  A
O408        C416   1.268       .  A
O409        C418   1.271       .  A
O410        C419   1.278       .  A
O411        C418   1.272       .  A
O412        C419   1.270       .  A
O413        C420   1.273       .  A
O414        C420   1.271       .  A
C421        N422   1.359       .  A
C421        N426   1.360       .  A
C421        C450   1.471       .  S
N422        C423   1.353       .  A
C423        N424   1.356       .  A
C423        C481   1.460       .  S
N424        C425   1.357       .  A
C425        N426   1.363       .  A
C425        C514   1.462       .  S
C427        N428   1.353       .  A
C427        N432   1.356       .  A
C427        C558   1.460       .  S
N428        C429   1.359       .  A
C429        N430   1.360       .  A
C429        C516   1.471       .  S
N430        C431   1.363       .  A
C431        N432   1.357       .  A
C431        C452   1.462       .  S
Zn433       O437   1.941       .  S
Zn433       O438   1.977       .  S
Zn433       O449   2.017       .  S
Zn434       O997   1.988   1_455  S
Zn434       O439   2.056       .  S
Zn434      O1001   2.065   1_455  S
Zn434       O445   2.054       .  S
Zn435       O857   1.945       .  S
Zn435      O1000   2.017       .  S
Zn435       O443   1.972   1_655  S
Zn435       O446   2.009   1_655  S
Zn436       O437   1.944       .  S
Zn436       O444   2.007       .  S
Zn436       O447   1.966       .  S
Zn436       O448   2.011       .  S
O437       Zn994   1.988       .  S
O437       Zn855   1.945   1_556  S
O438        C450   1.270       .  A
O439        C451   1.278   1_556  A
O440       Zn995   2.017       .  S
O440        C452   1.271       .  A
O441       Zn994   2.065       .  S
O441        C450   1.278       .  A
O442        C452   1.273       .  A
O445        C454   1.277       .  A
O446       C1013   1.272       .  A
O447       C1014   1.268       .  A
O448        C455   1.272       .  A
O449        C455   1.271       .  A
C453       C1047   1.457       .  S
C453       O1006   1.272       .  A
C454        C530   1.466       .  S
C454       O1007   1.268   1_455  A
C455        C456   1.460       .  S
C456        N457   1.353       .  A
C456        N461   1.356       .  A
N457        C458   1.359       .  A
C458        N459   1.360       .  A
C458        C479   1.471       .  S
N459        C460   1.363       .  A
C460        N461   1.357       .  A
C460        C560   1.462       .  S
Zn462       O467   1.977       .  S
Zn463       O470   2.065       .  S
Zn463       O474   2.056       .  S
Zn464       O466   1.944       .  S
Zn464       O469   2.011       .  S
Zn464       O472   1.966       .  S
Zn464       O475   2.007       .  S
Zn465       O473   2.009       .  S
Zn465       O476   1.972       .  S
Zn465       O477   2.017       .  S
O467        C479   1.270       .  A
O468        C480   1.277       .  A
O469        C481   1.272       .  A
O470        C479   1.278       .  A
O471        C481   1.271       .  A
O472        C480   1.268       .  A
O473        C482   1.272       .  A
O474        C483   1.278   1_556  A
O477        C484   1.271   1_565  A
C480        C491   1.466       .  S
C482        C532   1.457       .  S
C485       N1046   1.356       .  A
N486       C1045   1.356       .  A
N486       C1047   1.352       .  A
C487       N1046   1.352       .  A
C487       C1013   1.457       .  S
C491        N492   1.355       .  A
C491        N496   1.356       .  A
N492        C493   1.362       .  A
C493        N494   1.359       .  A
C493        C515   1.467       .  S
N494        C495   1.359       .  A
C495        N496   1.352       .  A
C495        C557   1.457       .  S
Zn497       O501   1.941       .  S
Zn497       O502   2.018       .  S
Zn497       O506   1.977       .  S
Zn497       O513   2.017       .  S
Zn498      O1061   1.945       .  S
Zn498       O503   1.972   1_655  S
Zn498      O1065   2.017       .  S
Zn499      O1061   1.988   1_455  S
Zn499      O1064   2.065   1_455  S
Zn499       O507   2.056       .  S
Zn499       O510   2.054       .  S
Zn500       O508   1.966       .  S
Zn500       O511   2.007       .  S
Zn500       O512   2.011       .  S
O501      Zn1058   1.945       .  S
O501      Zn1059   1.988       .  S
O502        C514   1.273       .  A
O503        C515   1.268       .  A
O504      Zn1059   2.065       .  S
O504        C516   1.278       .  A
O505      Zn1058   2.017       .  S
O505        C514   1.271       .  A
O506        C516   1.270       .  A
O507        C515   1.278       .  A
O508        C797   1.268       .  A
O509       C1078   1.272       .  A
O510        C517   1.277   1_565  A
O511        C518   1.269       .  A
O512        C519   1.272       .  A
C517        O788   1.268   1_455  A
C518       C1086   1.457       .  S
C518       O1069   1.272       .  A
C519        C522   1.460       .  S
C520        N521   1.359       .  A
C520        N525   1.360       .  A
C520        C559   1.471       .  S
N521        C522   1.353       .  A
C524        N525   1.363       .  A
C526        N527   1.359       .  A
C526       N1091   1.352       .  A
C526       C1078   1.457       .  S
N527        C528   1.359       .  A
C528        N529   1.362       .  A
C528        C555   1.467       .  S
N529        C530   1.355       .  A
C530       N1091   1.356       .  A
N531       C1086   1.352       .  A
N531       C1090   1.356       .  A
C532        N533   1.352       .  A
N533        C534   1.356       .  A
C534        N535   1.355       .  A
C534        C556   1.466       .  S
N535        C536   1.362       .  A
Zn538       O542   1.945       .  S
Zn538       O543   1.972       .  S
Zn538       O547   2.009       .  S
Zn538       O554   2.017       .  S
Zn539       O542   1.988       .  S
Zn539       O544   2.054       .  S
Zn539       O546   2.056       .  S
Zn539       O550   2.065       .  S
Zn540       O542   1.944       .  S
Zn540       O545   2.007       .  S
Zn540       O548   1.966       .  S
Zn540       O551   2.011       .  S
Zn541       O542   1.941       .  S
Zn541       O549   2.017       .  S
Zn541       O552   1.977       .  S
Zn541       O553   2.018       .  S
O543        C555   1.268       .  A
O544        C556   1.277       .  A
O545        C557   1.269       .  A
O546        C555   1.278       .  A
O547        C557   1.272       .  A
O548        C556   1.268       .  A
O549        C558   1.271       .  A
O550        C559   1.278       .  A
O551        C558   1.272       .  A
O552        C559   1.270       .  A
O553        C560   1.273       .  A
O554        C560   1.271       .  A
C561        N562   1.359       .  A
C561        N566   1.360       .  A
C561        C590   1.471       .  S
N562        C563   1.353       .  A
C563        N564   1.356       .  A
C563        C621   1.460       .  S
N564        C565   1.357       .  A
C565        N566   1.363       .  A
C565        C654   1.462       .  S
C567        N568   1.353       .  A
C567        N572   1.356       .  A
C567        C698   1.460       .  S
N568        C569   1.359       .  A
C569        N570   1.360       .  A
C569        C656   1.471       .  S
N570        C571   1.363       .  A
C571        N572   1.357       .  A
C571        C592   1.462       .  S
Zn573       O577   1.941       .  S
Zn573       O578   1.977       .  S
Zn573       O722   2.018       .  S
Zn573       O589   2.017       .  S
Zn574       O579   2.056       .  S
Zn574       O585   2.054       .  S
Zn575       O583   1.972       .  S
Zn575       O586   2.009       .  S
Zn576       O577   1.944       .  S
Zn576       O584   2.007       .  S
Zn576       O587   1.966       .  S
Zn576       O588   2.011       .  S
O578        C590   1.270       .  A
O579        C591   1.278       .  A
O580        C592   1.271       .  A
O581        C590   1.278       .  A
O582       Zn713   2.018   1_554  S
O582        C592   1.273       .  A
O583        C731   1.268       .  A
O584        C733   1.269   1_655  A
O585        C594   1.277       .  A
O588        C595   1.272       .  A
O589        C595   1.271       .  A
C591        C816   1.467       .  S
C591        O723   1.268       .  A
C593        O724   1.269   1_454  A
C594        C670   1.466       .  S
C595        C596   1.460       .  S
C596        N597   1.353       .  A
C596        N601   1.356       .  A
N597        C598   1.359       .  A
C598        N599   1.360       .  A
C598        C619   1.471       .  S
N599        C600   1.363       .  A
C600        N601   1.357       .  A
C600        C700   1.462       .  S
Zn602       O886   1.941       .  S
Zn602       O607   1.977   1_565  S
Zn602       O891   2.017       .  S
Zn602       O758   2.018   1_565  S
Zn603       O886   1.988   1_545  S
Zn603       O888   2.054   1_545  S
Zn603       O610   2.065       .  S
Zn603       O614   2.056       .  S
Zn604       O606   1.944       .  S
Zn604       O609   2.011       .  S
Zn604       O612   1.966       .  S
Zn604       O615   2.007       .  S
Zn605       O746   1.945   1_554  S
Zn605       O613   2.009       .  S
Zn605       O616   1.972       .  S
Zn605       O617   2.017       .  S
O606       Zn882   1.941       .  S
O606       Zn883   1.988       .  S
O606       Zn745   1.945       .  S
O607        C619   1.270       .  A
O608       Zn883   2.054       .  S
O608        C620   1.277       .  A
O609        C621   1.272       .  A
O610        C619   1.278       .  A
O611       Zn882   2.017       .  S
O611        C621   1.271       .  A
O612        C620   1.268       .  A
O613        C622   1.272       .  A
O614        C623   1.278       .  A
O615        C762   1.269       .  A
O616       C1043   1.268       .  A
O617        C624   1.271       .  A
O618       Zn742   2.018   1_544  S
O618        C904   1.273       .  A
C620        C631   1.466       .  S
C622        C672   1.457       .  S
C622        O755   1.269   1_554  A
C623        C769   1.467       .  S
C623       O1036   1.268   1_545  A
C624        C944   1.462       .  S
C624        O898   1.273       .  A
C625        N910   1.355       .  A
C625        C937   1.466       .  S
C627        N768   1.359       .  A
N628        C767   1.359       .  A
N628        C769   1.359       .  A
C629        N768   1.359       .  A
C629        N910   1.362       .  A
C629        C763   1.467       .  S
N630        C905   1.355       .  A
N630        C909   1.362       .  A
C631        N632   1.355       .  A
C631        N636   1.356       .  A
N632        C633   1.362       .  A
C633        N634   1.359       .  A
C633        C655   1.467       .  S
N634        C635   1.359       .  A
C635        N636   1.352       .  A
C635        C697   1.457       .  S
Zn637       O641   1.941       .  S
Zn637       O642   2.018       .  S
Zn637       O646   1.977       .  S
Zn637       O653   2.017       .  S
Zn638       O643   1.972       .  S
Zn638       O929   2.009       .  S
Zn639       O647   2.056       .  S
Zn639       O650   2.054       .  S
Zn640       O921   1.944   1_545  S
Zn640       O648   1.966       .  S
Zn640       O651   2.007       .  S
Zn640       O652   2.011       .  S
O641       Zn920   1.944       .  S
O642        C654   1.273       .  A
O643        C655   1.268       .  A
O644        C656   1.278       .  A
O645        C654   1.271       .  A
O646        C656   1.270       .  A
O647        C655   1.278       .  A
O649       Zn918   2.009   1_545  S
O650        C657   1.277       .  A
O651        C658   1.269   1_655  A
O652        C659   1.272       .  A
O653        C939   1.271       .  A
C657        C905   1.466       .  S
C659        C662   1.460       .  S
C659        O933   1.271   1_545  A
C660        N661   1.359       .  A
C660        N665   1.360       .  A
C660        C699   1.471       .  S
N661        C662   1.353       .  A
C662        N943   1.356       .  A
N663        C942   1.356       .  A
N663        C944   1.357       .  A
C664        N943   1.357       .  A
C664        N665   1.363       .  A
C664        C904   1.462       .  S
C666        N667   1.359       .  A
N667        C668   1.359       .  A
C668        N669   1.362       .  A
C668        C695   1.467       .  S
N669        C670   1.355       .  A
C672        N673   1.352       .  A
C672        N817   1.359       .  A
N673        C674   1.356       .  A
C674        N675   1.355       .  A
C674        C696   1.466       .  S
N675        C676   1.362       .  A
C676        N817   1.359       .  A
C676        C731   1.467       .  S
N677        C812   1.359       .  A
N677        C816   1.359       .  A
Zn678       O682   1.945       .  S
Zn678       O683   1.972       .  S
Zn678       O687   2.009       .  S
Zn678       O694   2.017       .  S
Zn679       O682   1.988       .  S
Zn679       O684   2.054       .  S
Zn679       O686   2.056       .  S
Zn679       O690   2.065       .  S
Zn680       O682   1.944       .  S
Zn680       O685   2.007       .  S
Zn680       O688   1.966       .  S
Zn680       O691   2.011       .  S
Zn681       O682   1.941       .  S
Zn681       O689   2.017       .  S
Zn681       O692   1.977       .  S
Zn681       O693   2.018       .  S
O683        C695   1.268       .  A
O684        C696   1.277       .  A
O685        C697   1.269       .  A
O686        C695   1.278       .  A
O687        C697   1.272       .  A
O688        C696   1.268       .  A
O689        C698   1.271       .  A
O690        C699   1.278       .  A
O691        C698   1.272       .  A
O692        C699   1.270       .  A
O693        C700   1.273       .  A
O694        C700   1.271       .  A
C701        N702   1.359       .  A
C701        N706   1.360       .  A
C701        C730   1.471       .  S
N702        C703   1.353       .  A
C703        N704   1.356       .  A
C703        C761   1.460       .  S
N704        C705   1.357       .  A
C705        N706   1.363       .  A
C705        C794   1.462       .  S
C707        N708   1.353       .  A
C707        N712   1.356       .  A
C707        C838   1.460       .  S
N708        C709   1.359       .  A
C709        N710   1.360       .  A
C709        C796   1.471       .  S
N710        C711   1.363       .  A
C711        N712   1.357       .  A
C711        C732   1.462       .  S
Zn713       O717   1.941       .  S
Zn713       O718   1.977       .  S
Zn713       O729   2.017       .  S
Zn714       O719   2.056       .  S
Zn714       O725   2.054       .  S
Zn715       O723   1.972       .  S
Zn715       O726   2.009       .  S
Zn716       O717   1.944       .  S
Zn716       O724   2.007       .  S
Zn716       O727   1.966       .  S
Zn716       O728   2.011       .  S
O718        C730   1.270       .  A
O719        C731   1.278   1_556  A
O720        C732   1.271       .  A
O721        C730   1.278       .  A
O722        C732   1.273       .  A
O725        C734   1.277       .  A
O728        C735   1.272       .  A
O729        C735   1.271       .  A
C734        C810   1.466       .  S
C735        C736   1.460       .  S
C736        N737   1.353       .  A
C736        N741   1.356       .  A
N737        C738   1.359       .  A
C738        N739   1.360       .  A
C738        C759   1.471       .  S
N739        C740   1.363       .  A
C740        N741   1.357       .  A
C740        C840   1.462       .  S
Zn742      O1026   1.941       .  S
Zn742       O747   1.977   1_565  S
Zn742      O1031   2.017       .  S
Zn743      O1026   1.988   1_545  S
Zn743      O1028   2.054   1_545  S
Zn743       O750   2.065       .  S
Zn743       O754   2.056       .  S
Zn744       O746   1.944       .  S
Zn744       O749   2.011       .  S
Zn744       O752   1.966       .  S
Zn744       O755   2.007       .  S
Zn745       O753   2.009       .  S
Zn745       O756   1.972       .  S
Zn745       O757   2.017       .  S
O746      Zn1022   1.941       .  S
O746      Zn1023   1.988       .  S
O747        C759   1.270       .  A
O748      Zn1023   2.054       .  S
O748        C760   1.277       .  A
O749        C761   1.272       .  A
O750        C759   1.278       .  A
O751      Zn1022   2.017       .  S
O751        C761   1.271       .  A
O752        C760   1.268       .  A
O753        C762   1.272       .  A
O754        C763   1.278   1_556  A
O756        C903   1.268       .  A
O757        C764   1.271       .  A
O758       C1044   1.273       .  A
C760        C771   1.466       .  S
C762        C812   1.457       .  S
C763        O896   1.268   1_545  A
C764       C1084   1.462       .  S
C764       O1038   1.273       .  A
C765       N1050   1.355       .  A
C765       C1077   1.466       .  S
C769       N1050   1.362       .  A
N770       C1045   1.355       .  A
N770       C1049   1.362       .  A
C771        N772   1.355       .  A
C771        N776   1.356       .  A
N772        C773   1.362       .  A
C773        N774   1.359       .  A
C773        C795   1.467       .  S
N774        C775   1.359       .  A
C775        N776   1.352       .  A
C775        C837   1.457       .  S
Zn777       O781   1.941       .  S
Zn777       O782   2.018       .  S
Zn777       O786   1.977       .  S
Zn777       O793   2.017       .  S
Zn778       O783   1.972       .  S
Zn778      O1069   2.009       .  S
Zn779       O787   2.056       .  S
Zn779       O790   2.054       .  S
Zn780      O1061   1.944   1_545  S
Zn780       O788   1.966       .  S
Zn780       O791   2.007       .  S
Zn780       O792   2.011       .  S
O781      Zn1060   1.944       .  S
O782        C794   1.273       .  A
O783        C795   1.268       .  A
O784        C796   1.278       .  A
O785        C794   1.271       .  A
O786        C796   1.270       .  A
O787        C795   1.278       .  A
O789      Zn1058   2.009   1_545  S
O790        C797   1.277       .  A
O791        C798   1.269   1_655  A
O792        C799   1.272       .  A
O793       C1079   1.271       .  A
C797       C1045   1.466       .  S
C799        C802   1.460       .  S
C799       O1073   1.271   1_545  A
C800        N801   1.359       .  A
C800        N805   1.360       .  A
C800        C839   1.471       .  S
N801        C802   1.353       .  A
C802       N1083   1.356       .  A
N803       C1082   1.356       .  A
N803       C1084   1.357       .  A
C804       N1083   1.357       .  A
C804        N805   1.363       .  A
C804       C1044   1.462       .  S
C806        N807   1.359       .  A
N807        C808   1.359       .  A
C808        N809   1.362       .  A
C808        C835   1.467       .  S
N809        C810   1.355       .  A
C812        N813   1.352       .  A
N813        C814   1.356       .  A
C814        N815   1.355       .  A
C814        C836   1.466       .  S
N815        C816   1.362       .  A
Zn818       O822   1.945       .  S
Zn818       O823   1.972       .  S
Zn818       O827   2.009       .  S
Zn818       O834   2.017       .  S
Zn819       O822   1.988       .  S
Zn819       O824   2.054       .  S
Zn819       O826   2.056       .  S
Zn819       O830   2.065       .  S
Zn820       O822   1.944       .  S
Zn820       O825   2.007       .  S
Zn820       O828   1.966       .  S
Zn820       O831   2.011       .  S
Zn821       O822   1.941       .  S
Zn821       O829   2.017       .  S
Zn821       O832   1.977       .  S
Zn821       O833   2.018       .  S
O823        C835   1.268       .  A
O824        C836   1.277       .  A
O825        C837   1.269       .  A
O826        C835   1.278       .  A
O827        C837   1.272       .  A
O828        C836   1.268       .  A
O829        C838   1.271       .  A
O830        C839   1.278       .  A
O831        C838   1.272       .  A
O832        C839   1.270       .  A
O833        C840   1.273       .  A
O834        C840   1.271       .  A
C841        N842   1.359       .  A
C841        N846   1.360       .  A
C841        C870   1.471       .  S
N842        C843   1.353       .  A
C843        N844   1.356       .  A
C843        C901   1.460       .  S
N844        C845   1.357       .  A
C845        N846   1.363       .  A
C845        C934   1.462       .  S
C847        N848   1.353       .  A
C847        N852   1.356       .  A
C847        C978   1.460       .  S
N848        C849   1.359       .  A
C849        N850   1.360       .  A
C849        C936   1.471       .  S
N850        C851   1.363       .  A
C851        N852   1.357       .  A
C851        C872   1.462       .  S
Zn853       O857   1.941       .  S
Zn853       O858   1.977       .  S
Zn853      O1002   2.018       .  S
Zn853       O869   2.017       .  S
Zn854       O859   2.056       .  S
Zn854       O865   2.054       .  S
Zn855       O863   1.972       .  S
Zn855       O866   2.009       .  S
Zn856       O857   1.944       .  S
Zn856       O864   2.007       .  S
Zn856       O867   1.966       .  S
Zn856       O868   2.011       .  S
O858        C870   1.270       .  A
O859        C871   1.278       .  A
O860        C872   1.271       .  A
O861        C870   1.278       .  A
O862       Zn993   2.018   1_554  S
O862        C872   1.273       .  A
O863       C1011   1.268       .  A
O864       C1013   1.269   1_655  A
O865        C874   1.277       .  A
O868        C875   1.272       .  A
O869        C875   1.271       .  A
C871       C1096   1.467       .  S
C871       O1003   1.268       .  A
C873       O1004   1.269   1_454  A
C874        C950   1.466       .  S
C875        C876   1.460       .  S
C876        N877   1.353       .  A
C876        N881   1.356       .  A
N877        C878   1.359       .  A
C878        N879   1.360       .  A
C878        C899   1.471       .  S
N879        C880   1.363       .  A
C880        N881   1.357       .  A
C880        C980   1.462       .  S
Zn882       O887   1.977       .  S
Zn882      O1038   2.018       .  S
Zn883       O890   2.065       .  S
Zn883       O894   2.056       .  S
Zn884       O886   1.944       .  S
Zn884       O889   2.011       .  S
Zn884       O892   1.966       .  S
Zn884       O895   2.007       .  S
Zn885      O1026   1.945   1_554  S
Zn885       O893   2.009       .  S
Zn885       O896   1.972       .  S
Zn885       O897   2.017       .  S
O886      Zn1025   1.945       .  S
O887        C899   1.270       .  A
O888        C900   1.277       .  A
O889        C901   1.272       .  A
O890        C899   1.278       .  A
O891        C901   1.271       .  A
O892        C900   1.268       .  A
O893        C902   1.272       .  A
O894        C903   1.278       .  A
O895       C1042   1.269       .  A
O897        C904   1.271   1_565  A
O898      Zn1022   2.018   1_554  S
C900        C911   1.466       .  S
C902        C952   1.457       .  S
C902       O1035   1.269   1_554  A
C903       C1049   1.467       .  S
C907       N1048   1.359       .  A
N908       C1047   1.359       .  A
N908       C1049   1.359       .  A
C909       N1048   1.359       .  A
C909       C1043   1.467       .  S
C911        N912   1.355       .  A
C911        N916   1.356       .  A
N912        C913   1.362       .  A
C913        N914   1.359       .  A
C913        C935   1.467       .  S
N914        C915   1.359       .  A
C915        N916   1.352       .  A
C915        C977   1.457       .  S
Zn917       O921   1.941       .  S
Zn917       O922   2.018       .  S
Zn917       O926   1.977       .  S
Zn917       O933   2.017       .  S
Zn918       O923   1.972       .  S
Zn919       O927   2.056       .  S
Zn919       O930   2.054       .  S
Zn920       O928   1.966       .  S
Zn920       O931   2.007       .  S
Zn920       O932   2.011       .  S
O922        C934   1.273       .  A
O923        C935   1.268       .  A
O924        C936   1.278       .  A
O925        C934   1.271       .  A
O926        C936   1.270       .  A
O927        C935   1.278       .  A
O930        C937   1.277   1_565  A
O931        C938   1.269   1_655  A
O932        C939   1.272       .  A
C939        C942   1.460       .  S
C940        N941   1.359       .  A
C940        N945   1.360       .  A
C940        C979   1.471       .  S
N941        C942   1.353       .  A
C944        N945   1.363       .  A
C946        N947   1.359       .  A
N947        C948   1.359       .  A
C948        N949   1.362       .  A
C948        C975   1.467       .  S
N949        C950   1.355       .  A
C952        N953   1.352       .  A
C952       N1097   1.359       .  A
N953        C954   1.356       .  A
C954        N955   1.355       .  A
C954        C976   1.466       .  S
N955        C956   1.362       .  A
C956       N1097   1.359       .  A
C956       C1011   1.467       .  S
N957       C1092   1.359       .  A
N957       C1096   1.359       .  A
Zn958       O962   1.945       .  S
Zn958       O963   1.972       .  S
Zn958       O967   2.009       .  S
Zn958       O974   2.017       .  S
Zn959       O962   1.988       .  S
Zn959       O964   2.054       .  S
Zn959       O966   2.056       .  S
Zn959       O970   2.065       .  S
Zn960       O962   1.944       .  S
Zn960       O965   2.007       .  S
Zn960       O968   1.966       .  S
Zn960       O971   2.011       .  S
Zn961       O962   1.941       .  S
Zn961       O969   2.017       .  S
Zn961       O972   1.977       .  S
Zn961       O973   2.018       .  S
O963        C975   1.268       .  A
O964        C976   1.277       .  A
O965        C977   1.269       .  A
O966        C975   1.278       .  A
O967        C977   1.272       .  A
O968        C976   1.268       .  A
O969        C978   1.271       .  A
O970        C979   1.278       .  A
O971        C978   1.272       .  A
O972        C979   1.270       .  A
O973        C980   1.273       .  A
O974        C980   1.271       .  A
C981        N982   1.359       .  A
C981        N986   1.360       .  A
C981       C1010   1.471       .  S
N982        C983   1.353       .  A
C983        N984   1.356       .  A
C983       C1041   1.460       .  S
N984        C985   1.357       .  A
C985        N986   1.363       .  A
C985       C1074   1.462       .  S
C987        N988   1.353       .  A
C987        N992   1.356       .  A
C987       C1118   1.460       .  S
N988        C989   1.359       .  A
C989        N990   1.360       .  A
C989       C1076   1.471       .  S
N990        C991   1.363       .  A
C991        N992   1.357       .  A
C991       C1012   1.462       .  S
Zn993       O997   1.941       .  S
Zn993       O998   1.977       .  S
Zn993      O1009   2.017       .  S
Zn994       O999   2.056       .  S
Zn994      O1005   2.054       .  S
Zn995      O1003   1.972       .  S
Zn995      O1006   2.009       .  S
Zn996       O997   1.944       .  S
Zn996      O1004   2.007       .  S
Zn996      O1007   1.966       .  S
Zn996      O1008   2.011       .  S
O998       C1010   1.270       .  A
O999       C1011   1.278   1_556  A
O1000      C1012   1.271       .  A
O1001      C1010   1.278       .  A
O1002      C1012   1.273       .  A
O1005      C1014   1.277       .  A
O1008      C1015   1.272       .  A
O1009      C1015   1.271       .  A
C1014      C1090   1.466       .  S
C1015      C1016   1.460       .  S
C1016      N1017   1.353       .  A
C1016      N1021   1.356       .  A
N1017      C1018   1.359       .  A
C1018      N1019   1.360       .  A
C1018      C1039   1.471       .  S
N1019      C1020   1.363       .  A
C1020      N1021   1.357       .  A
C1020      C1120   1.462       .  S
Zn1022     O1027   1.977       .  S
Zn1023     O1030   2.065       .  S
Zn1023     O1034   2.056       .  S
Zn1024     O1026   1.944       .  S
Zn1024     O1029   2.011       .  S
Zn1024     O1032   1.966       .  S
Zn1024     O1035   2.007       .  S
Zn1025     O1033   2.009       .  S
Zn1025     O1036   1.972       .  S
Zn1025     O1037   2.017       .  S
O1027      C1039   1.270       .  A
O1028      C1040   1.277       .  A
O1029      C1041   1.272       .  A
O1030      C1039   1.278       .  A
O1031      C1041   1.271       .  A
O1032      C1040   1.268       .  A
O1033      C1042   1.272       .  A
O1034      C1043   1.278   1_556  A
O1037      C1044   1.271   1_565  A
C1040      C1051   1.466       .  S
C1042      C1092   1.457       .  S
C1051      N1052   1.355       .  A
C1051      N1056   1.356       .  A
N1052      C1053   1.362       .  A
C1053      N1054   1.359       .  A
C1053      C1075   1.467       .  S
N1054      C1055   1.359       .  A
C1055      N1056   1.352       .  A
C1055      C1117   1.457       .  S
Zn1057     O1061   1.941       .  S
Zn1057     O1062   2.018       .  S
Zn1057     O1066   1.977       .  S
Zn1057     O1073   2.017       .  S
Zn1058     O1063   1.972       .  S
Zn1059     O1067   2.056       .  S
Zn1059     O1070   2.054       .  S
Zn1060     O1068   1.966       .  S
Zn1060     O1071   2.007       .  S
Zn1060     O1072   2.011       .  S
O1062      C1074   1.273       .  A
O1063      C1075   1.268       .  A
O1064      C1076   1.278       .  A
O1065      C1074   1.271       .  A
O1066      C1076   1.270       .  A
O1067      C1075   1.278       .  A
O1070      C1077   1.277   1_565  A
O1071      C1078   1.269   1_655  A
O1072      C1079   1.272       .  A
C1079      C1082   1.460       .  S
C1080      N1081   1.359       .  A
C1080      N1085   1.360       .  A
C1080      C1119   1.471       .  S
N1081      C1082   1.353       .  A
C1084      N1085   1.363       .  A
C1086      N1087   1.359       .  A
N1087      C1088   1.359       .  A
C1088      N1089   1.362       .  A
C1088      C1115   1.467       .  S
N1089      C1090   1.355       .  A
C1092      N1093   1.352       .  A
N1093      C1094   1.356       .  A
C1094      N1095   1.355       .  A
C1094      C1116   1.466       .  S
N1095      C1096   1.362       .  A
Zn1098     O1102   1.945       .  S
Zn1098     O1103   1.972       .  S
Zn1098     O1107   2.009       .  S
Zn1098     O1114   2.017       .  S
Zn1099     O1102   1.988       .  S
Zn1099     O1104   2.054       .  S
Zn1099     O1106   2.056       .  S
Zn1099     O1110   2.065       .  S
Zn1100     O1102   1.944       .  S
Zn1100     O1105   2.007       .  S
Zn1100     O1108   1.966       .  S
Zn1100     O1111   2.011       .  S
Zn1101     O1102   1.941       .  S
Zn1101     O1109   2.017       .  S
Zn1101     O1112   1.977       .  S
Zn1101     O1113   2.018       .  S
O1103      C1115   1.268       .  A
O1104      C1116   1.277       .  A
O1105      C1117   1.269       .  A
O1106      C1115   1.278       .  A
O1107      C1117   1.272       .  A
O1108      C1116   1.268       .  A
O1109      C1118   1.271       .  A
O1110      C1119   1.278       .  A
O1111      C1118   1.272       .  A
O1112      C1119   1.270       .  A
O1113      C1120   1.273       .  A
O1114      C1120   1.271       .  A
