geometry optimzed in LAMMPS
_audit_creation_date              2020-12-01 
_audit_creation_method            'lammps2cif' 
_symmetry_space_group_name_H-M    'P1' 
_symmetry_Int_Tables_number       1 
_symmetry_cell_setting            triclinic 
loop_ 
_symmetry_equiv_pos_as_xyz 
  x,y,z 
_cell_length_a                    28.18186819 
_cell_length_b                    28.88983403157145 
_cell_length_c                    28.82624577142116 
_cell_angle_alpha                 89.77106969750893 
_cell_angle_beta                  89.9991118295709 
_cell_angle_gamma                 89.71685676936593 
loop_ 
_atom_site_label 
_atom_site_type_symbol 
_atom_site_fract_x 
_atom_site_fract_y 
_atom_site_fract_z 
_atom_site_charge 
O1          O  0.44829792  0.02468962  0.10778315    -0.71200
O2          O  0.54722204  0.03615547  0.20643878    -0.72200
O3          O  0.54800206  0.02757598  0.10890879    -0.60800
O4          O  0.44457353  0.03308908  0.20469920    -0.69200
O5          O  0.44850349  0.46407023  0.22053363    -0.68800
O6          O  0.54946026  0.45641704  0.12296836    -0.60000
O7          O  0.54970081  0.46749238  0.22113251    -0.72500
O8          O  0.44986883  0.45390714  0.12405581    -0.71300
Cu9        Cu  0.49692197  0.03304819  0.15727346     1.04600
Cu10       Cu  0.49967883  0.45781248  0.17270460     1.04300
C11         C  0.43506061  0.98411750  0.09664257     0.95000
C12         C  0.56550490  0.50810862  0.22842219     0.94100
C13         C  0.56353389  0.49200317  0.10041304     0.86300
C14         C  0.42762705  0.99694450  0.22428062     0.92600
C15         C  0.34194976  0.49795583  0.33152811    -0.00700
C16         C  0.65641801  0.50112282  0.99964459    -0.00700
O17         O  0.44949550  0.29764715  0.12090826    -0.71200
O18         O  0.55252795  0.28766870  0.21690156    -0.72200
O19         O  0.54861756  0.29549321  0.11860643    -0.60800
O20         O  0.45283826  0.29277783  0.21988554    -0.69200
O21         O  0.45417473  0.21592435  0.21671742    -0.68800
O22         O  0.54545357  0.21953476  0.10753276    -0.60000
O23         O  0.55281747  0.21170814  0.20473200    -0.72500
O24         O  0.44451632  0.22104630  0.11658801    -0.71300
Cu25       Cu  0.50069452  0.29604310  0.16919474     1.04600
Cu26       Cu  0.49874471  0.21425092  0.16128670     1.04300
C27         C  0.43191820  0.26122027  0.10273958     0.95000
C28         C  0.56939021  0.24725344  0.22487943     0.94100
C29         C  0.56187383  0.25938720  0.09673888     0.86300
C30         C  0.44097685  0.25361184  0.23634822     0.92600
C31         C  0.34269075  0.24700299  0.00032168    -0.00700
C32         C  0.65714025  0.25086538  0.99778237    -0.00700
O33         O  0.94451328  0.29131513  0.28357558    -0.71200
O34         O  0.05122100  0.30605527  0.04544525    -0.72200
O35         O  0.04565427  0.29019133  0.27694279    -0.60800
O36         O  0.95090768  0.30039428  0.04504956    -0.69200
O37         O  0.95423157  0.22475675  0.05883473    -0.68800
O38         O  0.04242037  0.21399461  0.28658274    -0.60000
O39         O  0.05492976  0.23033717  0.05869600    -0.72500
O40         O  0.94264304  0.21568631  0.29758672    -0.71300
Cu41       Cu  0.00166690  0.29898329  0.99545878     1.04600
Cu42       Cu  0.00510831  0.21812101  0.01051514     1.04300
C43         C  0.92599585  0.25155550  0.27716789     0.95000
C44         C  0.06836476  0.27148759  0.06776162     0.94100
C45         C  0.05774471  0.24943059  0.26455353     0.86300
C46         C  0.93717281  0.26466519  0.06777985     0.92600
C47         C  0.15771091  0.25473440  0.16989709    -0.00700
C48         C  0.84308662  0.25131948  0.16753185    -0.00700
O49         O  0.04456379  0.45994748  0.27649131    -0.71200
O50         O  0.95154890  0.44892454  0.04518630    -0.72200
O51         O  0.94345162  0.45828979  0.28410853    -0.60800
O52         O  0.05187488  0.44539188  0.04599988    -0.69200
O53         O  0.05314455  0.02529887  0.05899444    -0.68800
O54         O  0.94696866  0.04132260  0.29336423    -0.60000
O55         O  0.95110385  0.02928389  0.05738497    -0.72500
O56         O  0.04593247  0.04025557  0.28522250    -0.71300
Cu57       Cu  0.00217368  0.45116530  0.99570256     1.04600
Cu58       Cu  0.00272550  0.03716450  0.01014511     1.04300
C59         C  0.06055657  0.00448733  0.26332241     0.96200
C60         C  0.93432004  0.98915972  0.06540629     0.94100
C61         C  0.93095330  0.00588476  0.27244694     0.86300
C62         C  0.06787043  0.98414880  0.06746153     0.92600
C63         C  0.15762892  0.49624671  0.17063027    -0.00700
C64         C  0.84269187  0.49754242  0.16701897    -0.00700
N65         N  0.79830442  0.12665196  0.19234161    -0.34900
N66         N  0.74537399  0.05524419  0.24670022    -0.55400
N67         N  0.70025323  0.12388656  0.30747729    -0.34900
N68         N  0.75264129  0.19537527  0.25242144    -0.55400
C69         C  0.82629061  0.08886549  0.18626565     0.28700
C70         C  0.82668891  0.16436607  0.18816381     0.28700
C71         C  0.67196851  0.08612579  0.31254761     0.28700
C72         C  0.67226457  0.16183581  0.31298537     0.28700
C73         C  0.77745751  0.02825727  0.22349924     0.37300
C74         C  0.72742888  0.02807955  0.28167513     0.37300
C75         C  0.77084173  0.22251566  0.21763344     0.37300
C76         C  0.72111466  0.22259213  0.27592595     0.37300
C77         C  0.87289602  0.10293273  0.18014082    -0.20100
C78         C  0.87321656  0.15012206  0.18219053    -0.20100
C79         C  0.62551759  0.10068068  0.31909012    -0.20100
C80         C  0.62573457  0.14788238  0.31951025    -0.20100
C81         C  0.74618808  0.48592662  0.21588723    -0.21200
C82         C  0.71681800  0.48623871  0.25223384    -0.21200
C83         C  0.74811357  0.26484980  0.21835599    -0.21200
C84         C  0.71928330  0.26531195  0.25506945    -0.21200
C85         C  0.81168298  0.04182405  0.18919597    -0.16600
C86         C  0.81094197  0.21118211  0.18895475    -0.16600
C87         C  0.68683900  0.20894258  0.30996843    -0.16500
C88         C  0.68748743  0.03902871  0.31068909    -0.16500
H89         H  0.90440108  0.08170347  0.17709364     0.16400
H90         H  0.90483692  0.17112222  0.18110239     0.16400
H91         H  0.59501649  0.08172837  0.98219647     0.16400
H92         H  0.59520041  0.17164499  0.97922346     0.16400
H93         H  0.74490999  0.45781962  0.19213481     0.14600
H94         H  0.69203384  0.45948739  0.25775022     0.14600
H95         H  0.74654686  0.29267378  0.19409515     0.14600
H96         H  0.69499480  0.29280049  0.26041631     0.14600
H97         H  0.76142206  0.12677225  0.19566485     0.27900
H98         H  0.73708106  0.12374486  0.30364988     0.27900
N99         N  0.75026094  0.30359245  0.08191146    -0.34900
N100        N  0.80920987  0.37454342  0.13069792    -0.55400
N101        N  0.74764407  0.44590733  0.08487411    -0.34900
N102        N  0.68839304  0.37536024  0.03604461    -0.55400
C103        C  0.77954122  0.27587463  0.10747433     0.28700
C104        C  0.71986745  0.27609242  0.05792087     0.28700
C105        C  0.77942669  0.47298240  0.10756090     0.28700
C106        C  0.71871845  0.47413979  0.05958331     0.28700
C107        C  0.81485157  0.33682680  0.15832643     0.37300
C108        C  0.81475643  0.41196719  0.15844360     0.37300
C109        C  0.68262422  0.33782843  0.00818458     0.37300
C110        C  0.68201816  0.41363027  0.00891732     0.37300
C111        C  0.76869888  0.23022591  0.09739644    -0.20100
C112        C  0.73002666  0.23040544  0.06922941    -0.20100
C113        C  0.77061713  0.51866646  0.09552853    -0.20100
C114        C  0.73098888  0.51955951  0.06897716    -0.20100
C115        C  0.82165506  0.35067828  0.20381598    -0.21200
C116        C  0.82157690  0.39780432  0.20387137    -0.21200
C117        C  0.67493473  0.35274953  0.96304142    -0.21200
C118        C  0.67455445  0.40000563  0.96351418    -0.21200
C119        C  0.81189321  0.28984677  0.14358377    -0.16600
C120        C  0.68698532  0.29015181  0.02218315    -0.16600
C121        C  0.68604279  0.46092887  0.02362769    -0.16500
C122        C  0.81179241  0.45895753  0.14360314    -0.16500
H123        H  0.78555874  0.19874562  0.10889982     0.16400
H124        H  0.71280238  0.19911828  0.05832204     0.16400
H125        H  0.77741679  0.05241708  0.11439841     0.16400
H126        H  0.70826803  0.05123361  0.06130887     0.16400
H127        H  0.82250795  0.32950728  0.23479147     0.14600
H128        H  0.82235089  0.41879535  0.23480193     0.14600
H129        H  0.63353007  0.33581380  0.27557212     0.14600
H130        H  0.63305850  0.41734684  0.27599554     0.14600
H131        H  0.75198238  0.33909273  0.07977113     0.27900
H132        H  0.74450705  0.41056851  0.08807850     0.27900
N133        N  0.25293392  0.05098944  0.24699729    -0.34900
N134        N  0.30011506  0.12367598  0.30471120    -0.55400
N135        N  0.25266158  0.19780182  0.24643058    -0.34900
N136        N  0.19708047  0.12557474  0.19750289    -0.55400
C137        C  0.26626954  0.03134636  0.28824765     0.28700
C138        C  0.21066453  0.03187582  0.23499251     0.28700
C139        C  0.26701697  0.21727209  0.28722949     0.28700
C140        C  0.21087985  0.21861356  0.23442174     0.28700
C141        C  0.32806095  0.08544156  0.30989420     0.37300
C142        C  0.32857025  0.16134998  0.30866274     0.37300
C143        C  0.17366098  0.08764409  0.18132485     0.37300
C144        C  0.17283821  0.16368239  0.18196381     0.37300
C145        C  0.23058459  0.00247552  0.30336019    -0.20100
C146        C  0.19599944  0.00327796  0.27074278    -0.20100
C147        C  0.23234681  0.24803506  0.30157688    -0.20100
C148        C  0.19738475  0.24790634  0.26961508    -0.20100
C149        C  0.37485137  0.09901733  0.31461895    -0.21200
C150        C  0.37512616  0.14654802  0.31417633    -0.21200
C151        C  0.13352176  0.10250180  0.15770430    -0.21200
C152        C  0.13278615  0.14919582  0.15857543    -0.21200
C153        C  0.31014832  0.03909797  0.31160086    -0.16600
C154        C  0.18416550  0.04027622  0.19347363    -0.16600
C155        C  0.18318910  0.21087376  0.19379066    -0.16500
C156        C  0.31090473  0.20793142  0.31066987    -0.16500
H157        H  0.22863451  0.48052129  0.33403749     0.16400
H158        H  0.16469064  0.48301960  0.27608106     0.16400
H159        H  0.22795820  0.26673084  0.33303656     0.16400
H160        H  0.16435742  0.26557802  0.27540439     0.16400
H161        H  0.40375362  0.07856721  0.98725902     0.14600
H162        H  0.40282168  0.16574948  0.99347439     0.14600
H163        H  0.10284424  0.08347012  0.14657930     0.14600
H164        H  0.10150390  0.16831469  0.14858575     0.14600
H165        H  0.27317810  0.07338723  0.22657565     0.27900
H166        H  0.27196147  0.17431705  0.22633920     0.27900
N167        N  0.29953456  0.37529977  0.02850914    -0.34900
N168        N  0.25325405  0.44665816  0.08659960    -0.55400
N169        N  0.20153095  0.37546916  0.13993628    -0.34900
N170        N  0.25385883  0.30414673  0.08688166    -0.55400
C171        C  0.31878467  0.41381628  0.00819366     0.28700
C172        C  0.32033272  0.33678619  0.00956622     0.28700
C173        C  0.19726033  0.41325245  0.16768720     0.28700
C174        C  0.19710282  0.33741605  0.16753153     0.28700
C175        C  0.27659202  0.47500920  0.05617060     0.37300
C176        C  0.22644786  0.47441706  0.11479341     0.37300
C177        C  0.27766308  0.27565624  0.05696499     0.37300
C178        C  0.22699365  0.27643322  0.11495555     0.37300
C179        C  0.35014910  0.39855910  0.97467909    -0.20100
C180        C  0.35250304  0.35214266  0.97670326    -0.20100
C181        C  0.19324970  0.39868263  0.21313647    -0.20100
C182        C  0.19306807  0.35142855  0.21303620    -0.20100
C183        C  0.26514868  0.52051986  0.06722269    -0.21200
C184        C  0.23339631  0.51995900  0.10224725    -0.21200
C185        C  0.26666154  0.23021947  0.06828420    -0.21200
C186        C  0.23446641  0.23087486  0.10278452    -0.21200
C187        C  0.31042207  0.46180110  0.02034256    -0.16600
C188        C  0.31101215  0.28862954  0.02086611    -0.16600
C189        C  0.19621730  0.29069508  0.15218831    -0.16500
C190        C  0.19614522  0.46016424  0.15245817    -0.16500
H191        H  0.31019944  0.42160176  0.26357559     0.16400
H192        H  0.30619458  0.33149152  0.26197544     0.16400
H193        H  0.19165662  0.41899909  0.24395580     0.16400
H194        H  0.19129306  0.33066531  0.24374989     0.16400
H195        H  0.29158626  0.05049276  0.06080491     0.14600
H196        H  0.22851159  0.05141637  0.12146417     0.14600
H197        H  0.28046051  0.19809511  0.05542329     0.14600
H198        H  0.21985701  0.19974729  0.11677211     0.14600
H199        H  0.27362919  0.37535078  0.05384662     0.27900
H200        H  0.20211447  0.37565032  0.10375176     0.27900
C201        C  0.10158304  0.97477268  0.10571691    -0.14700
C202        C  0.13180837  0.00644040  0.12341675    -0.29900
H203        H  0.10074350  0.43789871  0.12271776     0.14300
H204        H  0.13920234  0.03657604  0.10224571     0.14900
C205        C  0.11918335  0.47887348  0.20510144    -0.14700
C206        C  0.08909572  0.50955840  0.22528615    -0.29900
H207        H  0.11751855  0.94489473  0.21393951     0.14300
H208        H  0.09143271  0.54558931  0.21628031     0.14900
C209        C  0.88307201  0.50402964  0.24670178    -0.14700
C210        C  0.87711779  0.48144194  0.20605428    -0.29900
H211        H  0.86640499  0.03970059  0.25454604     0.14300
H212        H  0.90197329  0.45362360  0.19841024     0.14900
C213        C  0.89848936  0.98190227  0.10168512    -0.14700
C214        C  0.87154183  0.01510235  0.12243404    -0.29900
H215        H  0.89630100  0.94646147  0.11413076     0.14300
H216        H  0.87609001  0.54492769  0.11124886     0.14900
C217        C  0.12937503  0.24641645  0.12494168    -0.14700
C218        C  0.10142377  0.27988796  0.10637068    -0.29900
H219        H  0.13501858  0.21586112  0.10410928     0.14300
H220        H  0.10035212  0.31396044  0.12219777     0.14900
C221        C  0.11915977  0.27176595  0.20446109    -0.14700
C222        C  0.08940648  0.24093235  0.22472085    -0.29900
H223        H  0.11628494  0.30767026  0.21449162     0.14300
H224        H  0.09159461  0.20503585  0.21523126     0.14900
C225        C  0.88451451  0.24516100  0.24695181    -0.14700
C226        C  0.87793605  0.26749208  0.20603494    -0.29900
H227        H  0.86257521  0.21621853  0.25699337     0.14300
H228        H  0.90247980  0.29524092  0.19784083     0.14900
C229        C  0.90344563  0.27134152  0.10624185    -0.14700
C230        C  0.87643317  0.23805837  0.12679537    -0.29900
H231        H  0.90063715  0.30677645  0.11839990     0.14300
H232        H  0.87659705  0.20362583  0.11204393     0.14900
C233        C  0.41688348  0.25166230  0.28143611    -0.14700
C234        C  0.37106179  0.26398261  0.28778430    -0.29900
H235        H  0.43777211  0.23635051  0.30903806     0.14300
H236        H  0.35229521  0.27475960  0.25685854     0.14900
C237        C  0.39999522  0.26712138  0.06296745    -0.14700
C238        C  0.37249400  0.23403366  0.04357026    -0.29900
H239        H  0.40081728  0.30126417  0.04719246     0.14300
H240        H  0.36989073  0.20037855  0.06015076     0.14900
C241        C  0.60996466  0.23992977  0.25538285    -0.14700
C242        C  0.61514217  0.26006395  0.29732418    -0.29900
H243        H  0.63392533  0.21338985  0.24306185     0.14300
H244        H  0.58698632  0.28370557  0.30777706     0.14900
C245        C  0.59470415  0.26676877  0.05776284    -0.14700
C246        C  0.62381944  0.23522512  0.03766250    -0.29900
H247        H  0.59625601  0.30245496  0.04587479     0.14300
H248        H  0.62511901  0.20046960  0.05192649     0.14900
C249        C  0.40371982  0.97707749  0.05692879    -0.14700
C250        C  0.37655482  0.01052145  0.03705604    -0.29900
H251        H  0.40194505  0.94183084  0.04408940     0.14300
H252        H  0.36928210  0.54895651  0.06219954     0.14900
C253        C  0.37470545  0.48138253  0.29171155    -0.14700
C254        C  0.38706669  0.50914248  0.25583777    -0.29900
H255        H  0.39615975  0.45054802  0.29751204     0.14300
H256        H  0.36612314  0.03502085  0.24572046     0.14900
C257        C  0.60661134  0.51544700  0.25816579    -0.14700
C258        C  0.61464265  0.49313789  0.29887968    -0.29900
H259        H  0.62503014  0.04077525  0.24937043     0.14300
H260        H  0.58742310  0.46894976  0.30997329     0.14900
C261        C  0.62283918  0.01412813  0.03788608    -0.14700
C262        C  0.59602914  0.98102816  0.05866931    -0.29900
H263        H  0.62231553  0.04882517  0.05203246     0.14300
H264        H  0.59727547  0.44861626  0.04928121     0.14900
O265        O  0.44802269  0.02335291  0.44106681    -0.71200
O266        O  0.54896691  0.03559750  0.53915195    -0.72200
O267        O  0.54793926  0.02522475  0.44190108    -0.60800
O268        O  0.44644979  0.03416996  0.53865406    -0.69200
O269        O  0.44887983  0.46181816  0.54945290    -0.68800
O270        O  0.55385336  0.45611165  0.45654116    -0.60000
O271        O  0.54952030  0.46697024  0.55323511    -0.72500
O272        O  0.45438491  0.45132394  0.45109925    -0.71300
Cu273      Cu  0.49770834  0.03225860  0.49039089     1.04600
Cu274      Cu  0.50169263  0.45641665  0.50303121     1.04300
C275        C  0.43430953  0.98269124  0.43048785     0.95000
C276        C  0.56489866  0.50771257  0.56074295     0.94100
C277        C  0.56900123  0.49207587  0.43547895     0.86300
C278        C  0.42986908  0.99867702  0.55962142     0.92600
C279        C  0.34735467  0.50022605  0.66745855    -0.00700
C280        C  0.65644086  0.50358955  0.33261078    -0.00700
O281        O  0.45007666  0.29630037  0.45356097    -0.71200
O282        O  0.55029956  0.28295187  0.55286466    -0.72200
O283        O  0.54990907  0.29507520  0.45546959    -0.60800
O284        O  0.44941335  0.28549127  0.55272144    -0.69200
O285        O  0.45108189  0.20950458  0.54102771    -0.68800
O286        O  0.55000612  0.21923946  0.44257851    -0.60000
O287        O  0.55132180  0.20739879  0.53867964    -0.72500
O288        O  0.44909672  0.22030962  0.44242908    -0.71300
Cu289      Cu  0.49972059  0.29265975  0.50401369     1.04600
Cu290      Cu  0.50000950  0.21140235  0.49107800     1.04300
C291        C  0.43489334  0.26096055  0.43148639     0.95000
C292        C  0.56769970  0.24256846  0.55985846     0.94100
C293        C  0.56576202  0.25967044  0.43398310     0.86300
C294        C  0.43552539  0.24485657  0.56299444     0.92600
C295        C  0.34154002  0.24953338  0.33055103    -0.00700
C296        C  0.65534456  0.24855469  0.33257216    -0.00700
O297        O  0.94884173  0.28688906  0.61089281    -0.71200
O298        O  0.05150631  0.29910828  0.37631979    -0.72200
O299        O  0.05092641  0.28903904  0.61272106    -0.60800
O300        O  0.95170271  0.30068986  0.38184606    -0.69200
O301        O  0.95265796  0.22465905  0.39384380    -0.68800
O302        O  0.05286239  0.21341297  0.62684286    -0.60000
O303        O  0.05329297  0.22279452  0.38556081    -0.72500
O304        O  0.95091509  0.21109325  0.62422629    -0.71300
Cu305      Cu  0.99854495  0.29806891  0.32934892     1.04600
Cu306      Cu  0.99801414  0.21663075  0.34094639     1.04300
C307        C  0.93274886  0.24631639  0.60382997     0.95000
C308        C  0.06812686  0.26298712  0.39657207     0.94100
C309        C  0.06926450  0.24909393  0.60609443     0.86300
C310        C  0.93757107  0.26500191  0.40419921     0.92600
C311        C  0.15867229  0.25088617  0.50049231    -0.00700
C312        C  0.84158902  0.25136277  0.50106355    -0.00700
O313        O  0.05136451  0.45944450  0.61382956    -0.71200
O314        O  0.95208307  0.44887598  0.38231347    -0.72200
O315        O  0.94890718  0.46018412  0.61353657    -0.60800
O316        O  0.05153314  0.45120605  0.37553412    -0.69200
O317        O  0.05427070  0.03095610  0.38398877    -0.68800
O318        O  0.94824278  0.04255670  0.62609065    -0.60000
O319        O  0.95213010  0.03110538  0.38955140    -0.72500
O320        O  0.04886178  0.04325783  0.62534840    -0.71300
Cu321      Cu  0.99808019  0.45187940  0.32928602     1.04600
Cu322      Cu  0.00018836  0.03863807  0.33827165     1.04300
C323        C  0.06523888  0.00846856  0.60320512     0.96200
C324        C  0.93578444  0.99086191  0.39834026     0.94100
C325        C  0.93215731  0.00737259  0.60472013     0.86300
C326        C  0.06933056  0.99048867  0.39449767     0.92600
C327        C  0.15759233  0.49840508  0.49978461    -0.00700
C328        C  0.84192975  0.49671777  0.50187692    -0.00700
N329        N  0.79706629  0.12577208  0.52448659    -0.34900
N330        N  0.74694193  0.05410664  0.58052850    -0.55400
N331        N  0.70226929  0.12296552  0.64292389    -0.34900
N332        N  0.75303101  0.19451615  0.58732729    -0.55400
C333        C  0.82524288  0.08817273  0.51760970     0.28700
C334        C  0.82494926  0.16367239  0.51885694     0.28700
C335        C  0.67407828  0.08497208  0.64683182     0.28700
C336        C  0.67392951  0.16065908  0.64899754     0.28700
C337        C  0.77898195  0.02723268  0.55723321     0.37300
C338        C  0.72984823  0.02720209  0.61601449     0.37300
C339        C  0.77041052  0.22163308  0.55200356     0.37300
C340        C  0.72212692  0.22180928  0.61183294     0.37300
C341        C  0.87134322  0.10253605  0.50960987    -0.20100
C342        C  0.87122894  0.14946241  0.51063414    -0.20100
C343        C  0.62752018  0.09913919  0.65303329    -0.20100
C344        C  0.62744675  0.14617162  0.65459904    -0.20100
C345        C  0.74605479  0.48489286  0.55126165    -0.21200
C346        C  0.71742455  0.48449700  0.58834946    -0.21200
C347        C  0.74783994  0.26389839  0.55332437    -0.21200
C348        C  0.72035094  0.26458262  0.59115559    -0.21200
C349        C  0.81184141  0.04092475  0.52182828    -0.16600
C350        C  0.80957478  0.21065790  0.52190272    -0.16600
C351        C  0.68772688  0.20804434  0.64605845    -0.16500
C352        C  0.68965038  0.03793189  0.64462567    -0.16500
H353        H  0.90316120  0.08178172  0.50649364     0.16400
H354        H  0.90307169  0.17000952  0.50869266     0.16400
H355        H  0.59374049  0.07998250  0.32090062     0.16400
H356        H  0.59420305  0.16917374  0.32194910     0.16400
H357        H  0.74405303  0.45786943  0.52627333     0.14600
H358        H  0.69299358  0.45758711  0.59391596     0.14600
H359        H  0.74547508  0.29119215  0.52846391     0.14600
H360        H  0.69683859  0.29225065  0.59742543     0.14600
H361        H  0.76044992  0.12566929  0.52988760     0.27900
H362        H  0.73911534  0.12303053  0.63921276     0.27900
N363        N  0.75112346  0.30391718  0.41265446    -0.34900
N364        N  0.80774752  0.37449285  0.46409853    -0.55400
N365        N  0.75082550  0.44624423  0.41353848    -0.34900
N366        N  0.69864597  0.37573182  0.36013141    -0.55400
C367        C  0.78039083  0.27643419  0.43873765     0.28700
C368        C  0.72396595  0.27606589  0.38533762     0.28700
C369        C  0.78195363  0.47266488  0.43822524     0.28700
C370        C  0.72666733  0.47456731  0.38356592     0.28700
C371        C  0.81260540  0.33677561  0.49183126     0.37300
C372        C  0.81269291  0.41177183  0.49206230     0.37300
C373        C  0.67970557  0.33764405  0.33916653     0.37300
C374        C  0.68014891  0.41424861  0.33897856     0.37300
C375        C  0.77234109  0.23091017  0.42670657    -0.20100
C376        C  0.73598455  0.23050492  0.39604490    -0.20100
C377        C  0.77720052  0.51801413  0.42363043    -0.20100
C378        C  0.74218245  0.51952596  0.39150881    -0.20100
C379        C  0.81837195  0.35044293  0.53748676    -0.21200
C380        C  0.81839900  0.39752827  0.53762683    -0.21200
C381        C  0.65046771  0.35314565  0.30374367    -0.21200
C382        C  0.65048784  0.39950093  0.30381886    -0.21200
C383        C  0.81054003  0.28999177  0.47673645    -0.16600
C384        C  0.68829547  0.28953552  0.35143160    -0.16600
C385        C  0.68983884  0.46208597  0.35057722    -0.16500
C386        C  0.81109417  0.45865355  0.47704093    -0.16500
H387        H  0.78884972  0.19968565  0.43929698     0.16400
H388        H  0.72036391  0.19849451  0.38537237     0.16400
H389        H  0.77456760  0.05155683  0.44890115     0.16400
H390        H  0.70631692  0.04931232  0.39501531     0.16400
H391        H  0.81919275  0.32911042  0.56836119     0.14600
H392        H  0.81913394  0.41848328  0.56858695     0.14600
H393        H  0.63585172  0.33423833  0.60950543     0.14600
H394        H  0.63440915  0.41542773  0.60987764     0.14600
H395        H  0.74854305  0.33934209  0.41513979     0.27900
H396        H  0.74316031  0.41202890  0.42040031     0.27900
N397        N  0.25443903  0.05374395  0.58078586    -0.34900
N398        N  0.30075148  0.12382772  0.64310680    -0.55400
N399        N  0.25143295  0.19568816  0.58720454    -0.34900
N400        N  0.20319509  0.12633764  0.52671038    -0.55400
C401        C  0.27057737  0.02823334  0.61780018     0.28700
C402        C  0.21947176  0.02861527  0.55995592     0.28700
C403        C  0.28281779  0.22244439  0.61155117     0.28700
C404        C  0.22962236  0.22347488  0.55476701     0.28700
C405        C  0.32765400  0.08487444  0.64896173     0.37300
C406        C  0.32897988  0.16055116  0.65369448     0.37300
C407        C  0.17506306  0.08937961  0.51760803     0.37300
C408        C  0.17514741  0.16445047  0.52171002     0.37300
C409        C  0.24352960  0.98861745  0.62093712    -0.20100
C410        C  0.21362309  0.98828127  0.58458865    -0.20100
C411        C  0.27977687  0.26703121  0.59457091    -0.20100
C412        C  0.24885684  0.26724047  0.55911593    -0.20100
C413        C  0.37329552  0.09729930  0.66007968    -0.21200
C414        C  0.37347179  0.14364749  0.66621155    -0.21200
C415        C  0.12914166  0.10429053  0.50892274    -0.21200
C416        C  0.12900512  0.15108193  0.51258888    -0.21200
C417        C  0.31116798  0.03815742  0.64616687    -0.16600
C418        C  0.18792025  0.04191475  0.52308103    -0.16600
C419        C  0.19063118  0.21133927  0.52421693    -0.16500
C420        C  0.31748097  0.20879167  0.64603393    -0.16500
H421        H  0.30040556  0.45176240  0.60294669     0.16400
H422        H  0.24517056  0.45098741  0.53882396     0.16400
H423        H  0.29922734  0.29756051  0.60390323     0.16400
H424        H  0.24559070  0.29778467  0.53907495     0.16400
H425        H  0.40615484  0.07737765  0.31702500     0.14600
H426        H  0.40671346  0.16688105  0.31746130     0.14600
H427        H  0.09752877  0.08382675  0.50429179     0.14600
H428        H  0.09742848  0.17235831  0.51056339     0.14600
H429        H  0.26880727  0.08465404  0.56859043     0.27900
H430        H  0.24341429  0.16123640  0.59379019     0.27900
N431        N  0.30803755  0.37391750  0.36697274    -0.34900
N432        N  0.25387474  0.44394708  0.42000251    -0.55400
N433        N  0.19330116  0.37465511  0.46480416    -0.34900
N434        N  0.25355079  0.30465161  0.41892289    -0.55400
C435        C  0.31058025  0.41243097  0.33979628     0.28700
C436        C  0.31005008  0.33629796  0.33871615     0.28700
C437        C  0.18415545  0.41229829  0.49145109     0.28700
C438        C  0.18469500  0.33690615  0.49161511     0.28700
C439        C  0.28516458  0.47159775  0.39688687     0.37300
C440        C  0.22501494  0.47276328  0.44466893     0.37300
C441        C  0.28403160  0.27655580  0.39509961     0.37300
C442        C  0.22492647  0.27619349  0.44417830     0.37300
C443        C  0.31177330  0.39925217  0.29374920    -0.20100
C444        C  0.31082123  0.35155434  0.29301766    -0.20100
C445        C  0.17195390  0.39801014  0.53578241    -0.20100
C446        C  0.17237999  0.35107530  0.53591088    -0.20100
C447        C  0.27732786  0.51725566  0.40940135    -0.21200
C448        C  0.23800364  0.51816644  0.43613663    -0.21200
C449        C  0.27567291  0.23090993  0.40742718    -0.21200
C450        C  0.23710152  0.23060486  0.43516134    -0.21200
C451        C  0.31148654  0.45900687  0.35607186    -0.16600
C452        C  0.31042674  0.28909264  0.35419814    -0.16600
C453        C  0.19038439  0.28979614  0.47826219    -0.16500
C454        C  0.18973853  0.45940969  0.47804850    -0.16500
H455        H  0.40734740  0.41804538  0.69779439     0.16400
H456        H  0.40690777  0.32853483  0.69622159     0.16400
H457        H  0.16816986  0.41860775  0.56675920     0.16400
H458        H  0.16897197  0.33040653  0.56702271     0.16400
H459        H  0.29500534  0.04810561  0.39704740     0.14600
H460        H  0.22701230  0.05151224  0.45094927     0.14600
H461        H  0.29191647  0.19958535  0.39485300     0.14600
H462        H  0.22035790  0.19900768  0.44594603     0.14600
H463        H  0.30895527  0.37335274  0.40317628     0.27900
H464        H  0.20152333  0.37471571  0.42953611     0.27900
C465        C  0.10394309  0.98289900  0.43227622    -0.14700
C466        C  0.13054964  0.01552385  0.45394222    -0.29900
H467        H  0.10261745  0.44466270  0.44706080     0.14300
H468        H  0.13253224  0.04989075  0.43890436     0.14900
C469        C  0.11928210  0.48332010  0.53589758    -0.14700
C470        C  0.10987319  0.50661803  0.57569715    -0.29900
H471        H  0.08917269  0.96598869  0.52320553     0.14300
H472        H  0.13098342  0.53588640  0.58614052     0.14900
C473        C  0.88909790  0.50749206  0.57700929    -0.14700
C474        C  0.87596578  0.48020566  0.54121378    -0.29900
H475        H  0.86883818  0.04250141  0.58527863     0.14300
H476        H  0.89731973  0.44937159  0.53537854     0.14900
C477        C  0.90067107  0.98306439  0.43512382    -0.14700
C478        C  0.87182296  0.01523765  0.45477288    -0.29900
H479        H  0.89987064  0.94777570  0.44820550     0.14300
H480        H  0.87608187  0.54356559  0.44620465     0.14900
C481        C  0.12842820  0.23720158  0.45739591    -0.14700
C482        C  0.10157543  0.26994624  0.43541798    -0.29900
H483        H  0.13001946  0.20287664  0.44248910     0.14300
H484        H  0.10280017  0.30532125  0.44793400     0.14900
C485        C  0.12056710  0.26598862  0.53674660    -0.14700
C486        C  0.11130489  0.24245194  0.57651531    -0.29900
H487        H  0.09625831  0.29386571  0.52757900     0.14300
H488        H  0.13279646  0.21322503  0.58716476     0.14900
C489        C  0.89133892  0.23845216  0.57407144    -0.14700
C490        C  0.87598115  0.26713191  0.53999136    -0.29900
H491        H  0.87444224  0.20568310  0.58057762     0.14300
H492        H  0.89587134  0.29885725  0.53496422     0.14900
C493        C  0.90469027  0.27188758  0.44298835    -0.14700
C494        C  0.87568774  0.23897983  0.46090705    -0.29900
H495        H  0.90313781  0.30686801  0.45656725     0.14300
H496        H  0.87454682  0.20563242  0.44389973     0.14900
C497        C  0.40331601  0.23599056  0.60170520    -0.14700
C498        C  0.37930874  0.26692804  0.62817359    -0.29900
H499        H  0.39955473  0.19975574  0.60785074     0.14300
H500        H  0.38103042  0.30311286  0.61837490     0.14900
C501        C  0.40267977  0.26877549  0.39166998    -0.14700
C502        C  0.37575784  0.23600358  0.37086701    -0.29900
H503        H  0.40070197  0.30411899  0.37875047     0.14300
H504        H  0.37600436  0.20128670  0.38526619     0.14900
C505        C  0.60875659  0.23532400  0.59042501    -0.14700
C506        C  0.61551859  0.25846241  0.63055069    -0.29900
H507        H  0.63184828  0.20730972  0.57986176     0.14300
H508        H  0.58797894  0.28345786  0.63906803     0.14900
C509        C  0.60021935  0.26763363  0.39712316    -0.14700
C510        C  0.62726215  0.23492133  0.37628943    -0.29900
H511        H  0.60155192  0.30312461  0.38465897     0.14300
H512        H  0.62864259  0.20032233  0.39093174     0.14900
C513        C  0.40235306  0.97503257  0.39076945    -0.14700
C514        C  0.37640340  0.00852740  0.36932549    -0.29900
H515        H  0.39890531  0.93937999  0.37945063     0.14300
H516        H  0.37706112  0.54495643  0.38569077     0.14900
C517        C  0.38301573  0.48414882  0.62891231    -0.14700
C518        C  0.38918726  0.50665655  0.58776396    -0.29900
H519        H  0.40976402  0.45854389  0.63682052     0.14300
H520        H  0.37125814  0.03881966  0.58434296     0.14900
C521        C  0.60573719  0.51513937  0.59104020    -0.14700
C522        C  0.61369262  0.49130371  0.63080898    -0.29900
H523        H  0.62662638  0.04031081  0.58303963     0.14300
H524        H  0.58659896  0.46629807  0.64017601     0.14900
C525        C  0.62218756  0.01126078  0.37208176    -0.14700
C526        C  0.59552250  0.97796434  0.39251081    -0.29900
H527        H  0.62208025  0.04549401  0.38726260     0.14300
H528        H  0.60585015  0.44932265  0.38692140     0.14900
O529        O  0.45063271  0.02416339  0.77527131    -0.71200
O530        O  0.55192931  0.03735822  0.87181089    -0.72200
O531        O  0.55051533  0.02539412  0.77511665    -0.60800
O532        O  0.44921060  0.03634836  0.87198622    -0.69200
O533        O  0.45364318  0.47070182  0.89287989    -0.68800
O534        O  0.54446814  0.45671000  0.78748839    -0.60000
O535        O  0.55400457  0.46553993  0.88439915    -0.72500
O536        O  0.44359609  0.46168825  0.79719129    -0.71300
Cu537      Cu  0.50053059  0.03356367  0.82374357     1.04600
Cu538      Cu  0.49901103  0.46091037  0.84071012     1.04300
C539        C  0.43643736  0.98342705  0.76567813     0.95000
C540        C  0.57256020  0.50491899  0.89209732     0.94100
C541        C  0.56212447  0.49193470  0.76690967     0.86300
C542        C  0.43208384  0.00092756  0.89268821     0.92600
C543        C  0.34411340  0.50261473  0.00201914    -0.00700
C544        C  0.65352593  0.50205967  0.66665335    -0.00700
O545        O  0.43890460  0.28588544  0.79803273    -0.71200
O546        O  0.55583163  0.28955428  0.87959442    -0.72200
O547        O  0.53934370  0.29253837  0.78318363    -0.60800
O548        O  0.45717500  0.28491486  0.89477402    -0.69200
O549        O  0.46282891  0.20818580  0.89240823    -0.68800
O550        O  0.54605511  0.21608448  0.77795566    -0.60000
O551        O  0.56071576  0.21300666  0.87314736    -0.72500
O552        O  0.44496792  0.20939954  0.79312418    -0.71300
Cu553      Cu  0.49742041  0.29085762  0.83869247     1.04600
Cu554      Cu  0.50336881  0.20887639  0.83394947     1.04300
C555        C  0.42355691  0.24715144  0.78288983     0.95000
C556        C  0.57668210  0.25112581  0.88855995     0.94100
C557        C  0.55773337  0.25669781  0.76456643     0.86300
C558        C  0.44880266  0.24537891  0.91241936     0.92600
C559        C  0.34753014  0.24976325  0.66909537    -0.00700
C560        C  0.65434105  0.24726229  0.66763790    -0.00700
O561        O  0.95182541  0.28689970  0.94613151    -0.71200
O562        O  0.04683430  0.30043145  0.71120969    -0.72200
O563        O  0.05361687  0.29158700  0.94757960    -0.60800
O564        O  0.94726549  0.29789786  0.70796109    -0.69200
O565        O  0.94845605  0.22187588  0.72035018    -0.68800
O566        O  0.05611354  0.21615809  0.96271811    -0.60000
O567        O  0.04864954  0.22450183  0.72372126    -0.72500
O568        O  0.95459521  0.21160598  0.96161715    -0.71300
Cu569      Cu  0.99847645  0.29626047  0.66010005     1.04600
Cu570      Cu  0.00037984  0.21500512  0.67366030     1.04300
C571        C  0.93682760  0.24581836  0.93917572     0.95000
C572        C  0.06223658  0.26528252  0.73386059     0.94100
C573        C  0.07194721  0.25156882  0.94123070     0.86300
C574        C  0.93213713  0.26206344  0.72934647     0.92600
C575        C  0.15625754  0.25257054  0.83303011    -0.00700
C576        C  0.84554431  0.24864233  0.83300614    -0.00700
O577        O  0.05414480  0.45893925  0.94784079    -0.71200
O578        O  0.94905493  0.45009467  0.71089004    -0.72200
O579        O  0.95170322  0.46222970  0.94622486    -0.60800
O580        O  0.04921043  0.44903288  0.71289009    -0.69200
O581        O  0.04969217  0.03001057  0.72177587    -0.68800
O582        O  0.95270157  0.04260606  0.96078090    -0.60000
O583        O  0.94837774  0.02896070  0.72236760    -0.72500
O584        O  0.05337421  0.04069432  0.96251810    -0.71300
Cu585      Cu  0.99978164  0.45198925  0.66227624     1.04600
Cu586      Cu  0.99878080  0.03887011  0.67403010     1.04300
C587        C  0.06882267  0.00582771  0.94004196     0.96200
C588        C  0.93354988  0.98820841  0.73124435     0.94100
C589        C  0.93608905  0.00785302  0.93882403     0.86300
C590        C  0.06606446  0.98961006  0.73010562     0.92600
C591        C  0.15853144  0.49747475  0.83419247    -0.00700
C592        C  0.84346587  0.50010232  0.83341472    -0.00700
N593        N  0.80029024  0.12512620  0.85906790    -0.34900
N594        N  0.74825422  0.05512511  0.91459921    -0.55400
N595        N  0.70183794  0.12579826  0.97334238    -0.34900
N596        N  0.74968346  0.19532431  0.91470334    -0.55400
C597        C  0.82773236  0.08728787  0.85137537     0.28700
C598        C  0.82842582  0.16244384  0.85209074     0.28700
C599        C  0.67349884  0.08799972  0.97748743     0.28700
C600        C  0.67356140  0.16397882  0.97594796     0.28700
C601        C  0.78161990  0.02802935  0.89342960     0.37300
C602        C  0.73119963  0.02977632  0.95123340     0.37300
C603        C  0.78124025  0.22262460  0.89148342     0.37300
C604        C  0.73018509  0.22247223  0.94867371     0.37300
C605        C  0.87373783  0.10106759  0.84150220    -0.20100
C606        C  0.87420854  0.14794712  0.84230833    -0.20100
C607        C  0.62665411  0.10265892  0.98076965    -0.20100
C608        C  0.62668125  0.15010595  0.97915081    -0.20100
C609        C  0.78111829  0.48520819  0.91389573    -0.21200
C610        C  0.75202818  0.48638300  0.95053691    -0.21200
C611        C  0.78202703  0.26524370  0.91184084    -0.21200
C612        C  0.75162963  0.26526148  0.94736632    -0.21200
C613        C  0.81390189  0.04041844  0.85703416    -0.16600
C614        C  0.81484876  0.20944202  0.85669437    -0.16600
C615        C  0.68975837  0.21078801  0.97662907    -0.16500
C616        C  0.68969669  0.04090140  0.97801564    -0.16500
H617        H  0.90523714  0.08002134  0.83742676     0.16400
H618        H  0.90595329  0.16849691  0.83881218     0.16400
H619        H  0.59578703  0.07833122  0.65390745     0.16400
H620        H  0.59553610  0.16691972  0.65656122     0.16400
H621        H  0.80468991  0.45742060  0.90842639     0.14600
H622        H  0.75245788  0.45838394  0.97465675     0.14600
H623        H  0.80584750  0.29261172  0.90651267     0.14600
H624        H  0.75072616  0.29416246  0.97006065     0.14600
H625        H  0.76390446  0.12546548  0.86557237     0.27900
H626        H  0.73888895  0.12558257  0.97243821     0.27900
N627        N  0.74923173  0.30316816  0.75042693    -0.34900
N628        N  0.80015867  0.37460926  0.80464080    -0.55400
N629        N  0.74583704  0.44621458  0.75268578    -0.34900
N630        N  0.69458802  0.37469574  0.69832965    -0.55400
C631        C  0.77576974  0.27554415  0.77944597     0.28700
C632        C  0.71970046  0.27553376  0.72483100     0.28700
C633        C  0.77430777  0.47372062  0.77952870     0.28700
C634        C  0.71934288  0.47402789  0.72384152     0.28700
C635        C  0.81917100  0.33656817  0.82595324     0.37300
C636        C  0.81723979  0.41254061  0.82707570     0.37300
C637        C  0.67790343  0.33647090  0.67583028     0.37300
C638        C  0.67752919  0.41298493  0.67563101     0.37300
C639        C  0.76355465  0.23005111  0.77010779    -0.20100
C640        C  0.72803125  0.23020751  0.73848773    -0.20100
C641        C  0.76498403  0.51926212  0.76706869    -0.20100
C642        C  0.73015769  0.51951038  0.73468628    -0.20100
C643        C  0.84748227  0.35148364  0.86201887    -0.21200
C644        C  0.84584913  0.39745589  0.86301361    -0.21200
C645        C  0.65101253  0.35166519  0.63858654    -0.21200
C646        C  0.65053358  0.39792309  0.63862813    -0.21200
C647        C  0.81122816  0.28892879  0.81381588    -0.16600
C648        C  0.68602744  0.28852909  0.68860060    -0.16600
C649        C  0.68573461  0.46089513  0.68770857    -0.16500
C650        C  0.80910076  0.46018672  0.81466418    -0.16500
H651        H  0.77809683  0.19812597  0.78283215     0.16400
H652        H  0.71126719  0.19874759  0.72760254     0.16400
H653        H  0.77400227  0.05098241  0.78530428     0.16400
H654        H  0.70788358  0.04872045  0.72897096     0.16400
H655        H  0.86489310  0.33403460  0.89006131     0.14600
H656        H  0.86216540  0.41458717  0.89165671     0.14600
H657        H  0.67435860  0.33232134  0.93175404     0.14600
H658        H  0.67355344  0.42140942  0.93270953     0.14600
H659        H  0.75315417  0.33835455  0.74630520     0.27900
H660        H  0.74371848  0.41073092  0.75473195     0.27900
N661        N  0.25323151  0.05437854  0.91177777    -0.34900
N662        N  0.29696795  0.12345391  0.97411871    -0.55400
N663        N  0.24493185  0.19522996  0.91944644    -0.34900
N664        N  0.20101666  0.12643237  0.85585496    -0.55400
C665        C  0.27011201  0.02853497  0.94829676     0.28700
C666        C  0.21962744  0.02839313  0.89009253     0.28700
C667        C  0.27513979  0.22225841  0.94470654     0.28700
C668        C  0.22709920  0.22209872  0.88411151     0.28700
C669        C  0.32564951  0.08568359  0.97875463     0.37300
C670        C  0.32501696  0.16083746  0.98105141     0.37300
C671        C  0.17261026  0.08908466  0.84985134     0.37300
C672        C  0.17259865  0.16440191  0.85121116     0.37300
C673        C  0.24478121  0.98799206  0.95042016    -0.20100
C674        C  0.21582836  0.98708988  0.91353189    -0.20100
C675        C  0.27386946  0.26625285  0.92600462    -0.20100
C676        C  0.24831871  0.26475468  0.88682532    -0.20100
C677        C  0.37184734  0.09940322  0.98585482    -0.21200
C678        C  0.37126891  0.14612127  0.98838988    -0.21200
C679        C  0.12608840  0.10362738  0.84369028    -0.21200
C680        C  0.12599173  0.15071371  0.84532690    -0.21200
C681        C  0.31020951  0.03896391  0.97687792    -0.16600
C682        C  0.18661555  0.04172736  0.85448187    -0.16600
C683        C  0.18835122  0.21124023  0.85343446    -0.16500
C684        C  0.31036916  0.20813639  0.97832289    -0.16500
H685        H  0.31338280  0.46129017  0.92303601     0.16400
H686        H  0.25969658  0.46113024  0.85614991     0.16400
H687        H  0.29372540  0.29638568  0.93461354     0.16400
H688        H  0.25138980  0.29190521  0.86203588     0.16400
H689        H  0.40483393  0.07594036  0.66148738     0.14600
H690        H  0.40606400  0.16115801  0.67295034     0.14600
H691        H  0.09444992  0.08275923  0.84157348     0.14600
H692        H  0.09430076  0.17193117  0.84491858     0.14600
H693        H  0.26600138  0.08628970  0.90052004     0.27900
H694        H  0.23527814  0.16136599  0.92723332     0.27900
N695        N  0.30034362  0.37479297  0.69126275    -0.34900
N696        N  0.24966772  0.44556543  0.74681157    -0.55400
N697        N  0.19358619  0.37536000  0.79727739    -0.34900
N698        N  0.24835425  0.30457549  0.74696176    -0.55400
C699        C  0.32911903  0.41271890  0.68991928     0.28700
C700        C  0.32883538  0.33635650  0.69145091     0.28700
C701        C  0.18964462  0.41286551  0.82511696     0.28700
C702        C  0.18699318  0.33759402  0.82448010     0.28700
C703        C  0.27456258  0.47409070  0.71784636     0.37300
C704        C  0.21872967  0.47302355  0.77086558     0.37300
C705        C  0.27303495  0.27596902  0.71786851     0.37300
C706        C  0.21663433  0.27747547  0.77027246     0.37300
C707        C  0.37588293  0.39767078  0.69246570    -0.20100
C708        C  0.37569550  0.35021612  0.69297553    -0.20100
C709        C  0.18363636  0.39866224  0.87062710    -0.20100
C710        C  0.18129618  0.35150566  0.87021763    -0.20100
C711        C  0.25985452  0.51938849  0.72562794    -0.21200
C712        C  0.22399263  0.51838735  0.75668407    -0.21200
C713        C  0.25718290  0.23103041  0.72459614    -0.21200
C714        C  0.22126795  0.23231802  0.75548448    -0.21200
C715        C  0.31411001  0.46050255  0.68899238    -0.16600
C716        C  0.31373996  0.28897084  0.69059699    -0.16600
C717        C  0.18752889  0.29088878  0.80889708    -0.16500
C718        C  0.19014212  0.45954742  0.80987207    -0.16500
H719        H  0.36903371  0.41602882  0.94775953     0.16400
H720        H  0.37612871  0.33503936  0.95364225     0.16400
H721        H  0.18311818  0.41968673  0.90156776     0.16400
H722        H  0.17890894  0.33027027  0.90105024     0.16400
H723        H  0.28983897  0.04910518  0.72798095     0.14600
H724        H  0.21873679  0.05111760  0.77819954     0.14600
H725        H  0.27074109  0.19849357  0.71299074     0.14600
H726        H  0.20337496  0.20161728  0.76725827     0.14600
H727        H  0.26336206  0.37508540  0.68898628     0.27900
H728        H  0.19604286  0.37567540  0.76115556     0.27900
C729        C  0.10044159  0.98182312  0.76743279    -0.14700
C730        C  0.12681831  0.01487412  0.78839100    -0.29900
H731        H  0.09972612  0.44170760  0.78640105     0.14300
H732        H  0.12765821  0.04936303  0.77349974     0.14900
C733        C  0.12453921  0.48058777  0.87322820    -0.14700
C734        C  0.11352650  0.50617411  0.91101707    -0.29900
H735        H  0.08817861  0.96568501  0.85828190     0.14300
H736        H  0.13279036  0.53734860  0.91905500     0.14900
C737        C  0.89431630  0.51171515  0.90822106    -0.14700
C738        C  0.88489186  0.48868530  0.86822727    -0.29900
H739        H  0.87421176  0.04473989  0.91779071     0.14300
H740        H  0.91122251  0.46300813  0.85814957     0.14900
C741        C  0.89924358  0.97991574  0.76875592    -0.14700
C742        C  0.87156007  0.01264630  0.78910301    -0.29900
H743        H  0.89884235  0.94477777  0.78228603     0.14300
H744        H  0.87018682  0.54657589  0.77330235     0.14900
C745        C  0.12184422  0.23999355  0.79324838    -0.14700
C746        C  0.09459467  0.27317332  0.77295666    -0.29900
H747        H  0.12155583  0.20578084  0.77807454     0.14300
H748        H  0.09691286  0.30867214  0.78499822     0.14900
C749        C  0.12239056  0.26939486  0.87199678    -0.14700
C750        C  0.11270864  0.24415036  0.91038774    -0.29900
H751        H  0.10002342  0.29942253  0.86524652     0.14300
H752        H  0.13227352  0.21287214  0.91834242     0.14900
C753        C  0.89634750  0.23670946  0.90789634    -0.14700
C754        C  0.88711153  0.25963401  0.86751611    -0.29900
H755        H  0.87455108  0.20814673  0.91924740     0.14300
H756        H  0.91339457  0.28506256  0.85711051     0.14900
C757        C  0.89852435  0.26915525  0.76713253    -0.14700
C758        C  0.87266931  0.23586250  0.78842989    -0.29900
H759        H  0.89729795  0.30433737  0.78020009     0.14300
H760        H  0.87097275  0.20177147  0.77300271     0.14900
C761        C  0.42345639  0.24313968  0.95689862    -0.14700
C762        C  0.37732397  0.25543987  0.95933125    -0.29900
H763        H  0.44277933  0.22935090  0.98637141     0.14300
H764        H  0.36273693  0.26619331  0.92625289     0.14900
C765        C  0.38071538  0.24655387  0.75320732    -0.14700
C766        C  0.38382977  0.23620976  0.70752958    -0.29900
H767        H  0.34866903  0.26086825  0.76810820     0.14300
H768        H  0.41978352  0.22831933  0.69621217     0.14900
C769        C  0.61983386  0.24868536  0.91657899    -0.14700
C770        C  0.62260004  0.26753035  0.95922879    -0.29900
H771        H  0.64505086  0.22295010  0.90486302     0.14300
H772        H  0.59527786  0.29259586  0.96823241     0.14900
C773        C  0.59246131  0.26457655  0.72747095    -0.14700
C774        C  0.62341318  0.23319944  0.70973078    -0.29900
H775        H  0.59299353  0.29981620  0.71421477     0.14300
H776        H  0.62575246  0.19916586  0.72555518     0.14900
C777        C  0.40429029  0.97544341  0.72660119    -0.14700
C778        C  0.37604360  0.00829917  0.70742308    -0.29900
H779        H  0.40337668  0.94032919  0.71333006     0.14300
H780        H  0.40771621  0.54129853  0.69997555     0.14900
C781        C  0.38614051  0.49283115  0.96809936    -0.14700
C782        C  0.39621855  0.51834660  0.92987084    -0.29900
H783        H  0.41306330  0.46764423  0.97812442     0.14300
H784        H  0.37189993  0.04052149  0.91515871     0.14900
C785        C  0.61488760  0.50923106  0.92099756    -0.14700
C786        C  0.62122268  0.48603072  0.96136937    -0.29900
H787        H  0.63149252  0.04022479  0.91302743     0.14300
H788        H  0.59584383  0.45901320  0.96961464     0.14900
C789        C  0.62393313  0.01023871  0.70520100    -0.14700
C790        C  0.59686000  0.97725566  0.72547714    -0.29900
H791        H  0.62426386  0.04431340  0.72071592     0.14300
H792        H  0.59654278  0.44841699  0.71664329     0.14900
O793        O  0.44721661  0.53002279  0.11220696    -0.71200
O794        O  0.54818531  0.54328472  0.20739510    -0.72200
O795        O  0.54784237  0.53231482  0.11022042    -0.60800
O796        O  0.44647367  0.53999928  0.20781577    -0.69200
O797        O  0.44635747  0.95722901  0.21708756    -0.68800
O798        O  0.54946647  0.95138650  0.11968215    -0.60000
O799        O  0.54958427  0.96025004  0.21854498    -0.72500
O800        O  0.45033563  0.94846144  0.11852101    -0.71300
Cu801      Cu  0.49749150  0.53919302  0.15951151     1.04600
Cu802      Cu  0.49905273  0.95161404  0.16908741     1.04300
C803        C  0.43267699  0.48934137  0.10332694     0.95000
C804        C  0.56555907  0.00078905  0.22649488     0.94100
C805        C  0.56357962  0.98755267  0.09802442     0.86300
C806        C  0.42977889  0.50371016  0.22732542     0.92600
C807        C  0.34055232  0.99607908  0.33069194    -0.00700
C808        C  0.65725800  0.00018964  0.99837211    -0.00700
O809        O  0.44974467  0.80397483  0.12032584    -0.71200
O810        O  0.55508509  0.79270609  0.21507847    -0.72200
O811        O  0.54847669  0.80095555  0.11683966    -0.60800
O812        O  0.45406213  0.79742720  0.22057426    -0.69200
O813        O  0.45371757  0.72078076  0.21538968    -0.68800
O814        O  0.54545097  0.72483749  0.10671506    -0.60000
O815        O  0.55370421  0.71669789  0.20396510    -0.72500
O816        O  0.44530643  0.72749737  0.11458594    -0.71300
Cu817      Cu  0.50161040  0.80138588  0.16850705     1.04600
Cu818      Cu  0.49900003  0.71971539  0.16018461     1.04300
C819        C  0.43308699  0.76784503  0.10071110     0.95000
C820        C  0.57196814  0.75224531  0.22293580     0.94100
C821        C  0.56131093  0.76461876  0.09508258     0.86300
C822        C  0.44094649  0.75809333  0.23599314     0.92600
C823        C  0.34265443  0.75218195  0.99807476    -0.00700
C824        C  0.65730552  0.75259790  0.99780129    -0.00700
O825        O  0.94780054  0.78429679  0.27927737    -0.71200
O826        O  0.05046951  0.80041466  0.04510909    -0.72200
O827        O  0.04754687  0.78780010  0.27532934    -0.60800
O828        O  0.94961323  0.79592317  0.04326825    -0.69200
O829        O  0.95211551  0.72045683  0.05829818    -0.68800
O830        O  0.04697537  0.71146308  0.28526156    -0.60000
O831        O  0.05409900  0.72496115  0.05964509    -0.72500
O832        O  0.94836852  0.70855934  0.29346735    -0.71300
Cu833      Cu  0.00109806  0.79333625  0.99494391     1.04600
Cu834      Cu  0.00369396  0.71257323  0.01107510     1.04300
C835        C  0.93148652  0.74376478  0.27230850     0.95000
C836        C  0.06785095  0.76627567  0.06789072     0.94100
C837        C  0.06076066  0.74741256  0.26313671     0.86300
C838        C  0.93434546  0.76045895  0.06534511     0.92600
C839        C  0.15983573  0.75404820  0.16937770    -0.00700
C840        C  0.84356323  0.74740607  0.16613058    -0.00700
O841        O  0.04836607  0.96394959  0.27589340    -0.71200
O842        O  0.95027273  0.95363369  0.04390597    -0.72200
O843        O  0.94861446  0.96567979  0.27932063    -0.60800
O844        O  0.05124622  0.94982515  0.04495195    -0.69200
O845        O  0.05380254  0.52117728  0.05832987    -0.68800
O846        O  0.94090800  0.53405368  0.29681102    -0.60000
O847        O  0.95285180  0.52466112  0.05800156    -0.72500
O848        O  0.04086801  0.53607041  0.28629877    -0.71300
Cu849      Cu  0.00139387  0.95629644  0.99513383     1.04600
Cu850      Cu  0.00370340  0.53210480  0.00965441     1.04300
C851        C  0.05667892  0.50076394  0.26442262     0.96200
C852        C  0.93695978  0.48447904  0.06753217     0.94100
C853        C  0.92455685  0.49799238  0.27706018     0.86300
C854        C  0.06813618  0.48024769  0.06803092     0.92600
C855        C  0.15920751  0.99707606  0.16904522    -0.00700
C856        C  0.84315493  0.00213015  0.16644029    -0.00700
N857        N  0.79839411  0.62320093  0.19091658    -0.34900
N858        N  0.75193903  0.55501819  0.25006247    -0.55400
N859        N  0.70124949  0.62684988  0.30623330    -0.34900
N860        N  0.74677779  0.69514009  0.24680431    -0.55400
C861        C  0.82643935  0.58498247  0.18644203     0.28700
C862        C  0.82678126  0.66061687  0.18562730     0.28700
C863        C  0.67297322  0.58954239  0.31199178     0.28700
C864        C  0.67313298  0.66488004  0.31101313     0.28700
C865        C  0.76973771  0.52769520  0.21534671     0.37300
C866        C  0.71984093  0.52850818  0.27337085     0.37300
C867        C  0.77930147  0.72168928  0.22414462     0.37300
C868        C  0.72941358  0.72203528  0.28210909     0.37300
C869        C  0.87313318  0.59856632  0.18088394    -0.20100
C870        C  0.87326254  0.64582903  0.17955233    -0.20100
C871        C  0.62651496  0.60417091  0.31856120    -0.20100
C872        C  0.62648511  0.65123196  0.31688067    -0.20100
C873        C  0.77983659  0.98584544  0.24483264    -0.21200
C874        C  0.75084003  0.98615481  0.28141586    -0.21200
C875        C  0.78252504  0.76357541  0.24618173    -0.21200
C876        C  0.75337811  0.76336615  0.28268150    -0.21200
C877        C  0.81034785  0.53831028  0.18724682    -0.16600
C878        C  0.81267373  0.70790837  0.18924536    -0.16600
C879        C  0.68922476  0.71141644  0.31044140    -0.16500
C880        C  0.68715615  0.54244333  0.30867670    -0.16500
H881        H  0.90461406  0.57707832  0.17983135     0.16400
H882        H  0.90492912  0.66662611  0.17702655     0.16400
H883        H  0.59471656  0.58180790  0.98165703     0.16400
H884        H  0.59482566  0.67179970  0.98067922     0.16400
H885        H  0.80475168  0.95890287  0.24003357     0.14600
H886        H  0.75313674  0.95888470  0.30626318     0.14600
H887        H  0.80767976  0.79007547  0.24157398     0.14600
H888        H  0.75527934  0.79029916  0.30777394     0.14600
H889        H  0.76150226  0.62379897  0.19413160     0.27900
H890        H  0.73811807  0.62630876  0.30274411     0.27900
N891        N  0.74751705  0.80419727  0.08638472    -0.34900
N892        N  0.79978601  0.87501342  0.13929970    -0.55400
N893        N  0.74608536  0.94696100  0.08796868    -0.34900
N894        N  0.69020056  0.87608354  0.03569401    -0.55400
C895        C  0.77300310  0.77585382  0.11522733     0.28700
C896        C  0.71612861  0.77763645  0.06217204     0.28700
C897        C  0.77360068  0.97482062  0.11487860     0.28700
C898        C  0.71666034  0.97445274  0.06210017     0.28700
C899        C  0.81841606  0.83653943  0.16046556     0.37300
C900        C  0.81816552  0.91318886  0.16063076     0.37300
C901        C  0.68653821  0.83853188  0.00767211     0.37300
C902        C  0.68645988  0.91404823  0.00789688     0.37300
C903        C  0.75806609  0.73076002  0.10690819    -0.20100
C904        C  0.72162197  0.73223530  0.07631732    -0.20100
C905        C  0.76139921  0.02039773  0.10432992    -0.20100
C906        C  0.72460446  0.01999100  0.07418306    -0.20100
C907        C  0.84733354  0.85148104  0.19616689    -0.21200
C908        C  0.84704540  0.89782298  0.19634472    -0.21200
C909        C  0.68278269  0.85294434  0.96191693    -0.21200
C910        C  0.68264973  0.90034575  0.96207345    -0.21200
C911        C  0.80984177  0.78862573  0.14809962    -0.16600
C912        C  0.68741472  0.79137632  0.02302613    -0.16600
C913        C  0.68760868  0.96103228  0.02327343    -0.16500
C914        C  0.80979386  0.96127064  0.14817372    -0.16500
H915        H  0.77173491  0.69812962  0.11865734     0.16400
H916        H  0.70394466  0.70156507  0.06436226     0.16400
H917        H  0.78916937  0.54961220  0.10522289     0.16400
H918        H  0.71462018  0.55144708  0.05800139     0.16400
H919        H  0.86497409  0.83381225  0.22395854     0.14600
H920        H  0.86412311  0.91529380  0.22437182     0.14600
H921        H  0.67923871  0.83067162  0.26422901     0.14600
H922        H  0.67791425  0.92020663  0.26436186     0.14600
H923        H  0.75447337  0.83861376  0.07981694     0.27900
H924        H  0.74886078  0.91156045  0.08524264     0.27900
N925        N  0.25203709  0.55190863  0.24866009    -0.34900
N926        N  0.30026472  0.62509625  0.30648179    -0.55400
N927        N  0.25414831  0.69854138  0.24709690    -0.34900
N928        N  0.19729326  0.62474693  0.19862075    -0.55400
C929        C  0.26661171  0.53154551  0.28920000     0.28700
C930        C  0.21070139  0.53105712  0.23595700     0.28700
C931        C  0.26748854  0.71768058  0.28840780     0.28700
C932        C  0.21190717  0.71833257  0.23503543     0.28700
C933        C  0.32808983  0.58689849  0.31180792     0.37300
C934        C  0.32882746  0.66272752  0.31084238     0.37300
C935        C  0.17276228  0.58698109  0.18347683     0.37300
C936        C  0.17396312  0.66307586  0.18232504     0.37300
C937        C  0.23246640  0.50014782  0.30288625    -0.20100
C938        C  0.19753683  0.50089607  0.27073218    -0.20100
C939        C  0.23167049  0.74672751  0.30341181    -0.20100
C940        C  0.19724669  0.74674844  0.27070700    -0.20100
C941        C  0.37489006  0.60067987  0.31723141    -0.21200
C942        C  0.37526132  0.64813703  0.31679022    -0.21200
C943        C  0.13248979  0.60210064  0.16051588    -0.21200
C944        C  0.13351899  0.64877362  0.15918088    -0.21200
C945        C  0.31042439  0.54031346  0.31282253    -0.16600
C946        C  0.18316673  0.53952391  0.19505988    -0.16600
C947        C  0.18494242  0.71036387  0.19386750    -0.16500
C948        C  0.31134454  0.70921904  0.31206844    -0.16500
H949        H  0.22609524  0.98474607  0.33566958     0.16400
H950        H  0.16275168  0.98615214  0.27616251     0.16400
H951        H  0.22668987  0.76389187  0.33579580     0.16400
H952        H  0.16391466  0.76399542  0.27613477     0.16400
H953        H  0.40399050  0.58249112  0.99780817     0.14600
H954        H  0.40496923  0.66993021  0.99309185     0.14600
H955        H  0.10108860  0.58343785  0.15075225     0.14600
H956        H  0.10299563  0.66822320  0.14772119     0.14600
H957        H  0.27110347  0.57593425  0.22904664     0.27900
H958        H  0.27426954  0.67590784  0.22678367     0.27900
N959        N  0.30895839  0.87530062  0.03530426    -0.34900
N960        N  0.25635938  0.94570033  0.08932389    -0.55400
N961        N  0.20184207  0.87558674  0.14040895    -0.34900
N962        N  0.25597753  0.80535137  0.08871772    -0.55400
C963        C  0.31224799  0.91332754  0.00772771     0.28700
C964        C  0.31182599  0.83784701  0.00710622     0.28700
C965        C  0.19733975  0.91345169  0.16802217     0.28700
C966        C  0.19766790  0.83753748  0.16806310     0.28700
C967        C  0.28358055  0.97372580  0.06207001     0.37300
C968        C  0.23062984  0.97428225  0.11743756     0.37300
C969        C  0.28282217  0.77717176  0.06121050     0.37300
C970        C  0.23063678  0.77683067  0.11722490     0.37300
C971        C  0.31478976  0.89994251  0.96184357    -0.20100
C972        C  0.31379316  0.85276557  0.96139099    -0.20100
C973        C  0.19352008  0.89906637  0.21360747    -0.20100
C974        C  0.19382093  0.85164639  0.21364408    -0.20100
C975        C  0.27595701  0.01937061  0.07439400    -0.21200
C976        C  0.24195594  0.01979517  0.10740804    -0.21200
C977        C  0.27516645  0.73153454  0.07370336    -0.21200
C978        C  0.24177824  0.73128172  0.10721050    -0.21200
C979        C  0.31156053  0.96001604  0.02273457    -0.16600
C980        C  0.31106517  0.79075695  0.02193385    -0.16600
C981        C  0.19799712  0.79066424  0.15282533    -0.16500
C982        C  0.19765076  0.96041239  0.15278061    -0.16500
H983        H  0.30106423  0.92099356  0.26408701     0.16400
H984        H  0.29761842  0.83019825  0.26355920     0.16400
H985        H  0.19221468  0.91984759  0.24429344     0.16400
H986        H  0.19274289  0.83065032  0.24436580     0.16400
H987        H  0.27822372  0.55263338  0.05378225     0.14600
H988        H  0.21861911  0.55101255  0.11646144     0.14600
H989        H  0.29055218  0.70025066  0.06018395     0.14600
H990        H  0.22858758  0.69971076  0.12161075     0.14600
H991        H  0.30874112  0.87493270  0.07150725     0.27900
H992        H  0.20305475  0.87572580  0.10422343     0.27900
C993        C  0.10119715  0.47215050  0.10700298    -0.14700
C994        C  0.12883125  0.50544705  0.12577571    -0.29900
H995        H  0.09909756  0.94095217  0.12215472     0.14300
H996        H  0.13379923  0.53642518  0.10525634     0.14900
C997        C  0.12037169  0.98064030  0.20316778    -0.14700
C998        C  0.09107631  0.01213532  0.22299018    -0.29900
H999        H  0.11627780  0.44280150  0.21471007     0.14300
H1000       H  0.09299619  0.04786570  0.21305037     0.14900
C1001       C  0.88994617  0.01270063  0.24247185    -0.14700
C1002       C  0.88348178  0.99085350  0.20155062    -0.29900
H1003       H  0.86070698  0.53297055  0.25622741     0.14300
H1004       H  0.91107317  0.96646620  0.19139571     0.14900
C1005       C  0.90357098  0.47735519  0.10617891    -0.14700
C1006       C  0.87618974  0.51053699  0.12637482    -0.29900
H1007       H  0.90126744  0.44191882  0.11866172     0.14300
H1008       H  0.87099174  0.04982527  0.10805240     0.14900
C1009       C  0.13235786  0.74465464  0.12390959    -0.14700
C1010       C  0.10138964  0.77600092  0.10609256    -0.29900
H1011       H  0.14018879  0.71452025  0.10300551     0.14300
H1012       H  0.09824500  0.80978429  0.12227829     0.14900
C1013       C  0.12109114  0.77094495  0.20342231    -0.14700
C1014       C  0.09147855  0.73985030  0.22301090    -0.29900
H1015       H  0.11825687  0.80665051  0.21409515     0.14300
H1016       H  0.09336781  0.70419476  0.21319270     0.14900
C1017       C  0.89111650  0.73617187  0.24187240    -0.14700
C1018       C  0.88419211  0.75824477  0.20091005    -0.29900
H1019       H  0.86831704  0.70864226  0.25383375     0.14300
H1020       H  0.91140437  0.78279939  0.19064098     0.14900
C1021       C  0.89818393  0.76770910  0.10119317    -0.14700
C1022       C  0.87149797  0.73449116  0.12201357    -0.29900
H1023       H  0.89571780  0.80312617  0.11343554     0.14300
H1024       H  0.87116384  0.69981615  0.10780716     0.14900
C1025       C  0.41633156  0.75498084  0.28124633    -0.14700
C1026       C  0.37043477  0.76719347  0.28861180    -0.29900
H1027       H  0.43702695  0.73852128  0.30832398     0.14300
H1028       H  0.35138510  0.77918696  0.25832287     0.14900
C1029       C  0.40232002  0.77401875  0.05963791    -0.14700
C1030       C  0.37619192  0.74026443  0.03941972    -0.29900
H1031       H  0.40121523  0.80868153  0.04488017     0.14300
H1032       H  0.37537360  0.70666982  0.05619581     0.14900
C1033       C  0.61360718  0.74459223  0.25287894    -0.14700
C1034       C  0.62297980  0.76891193  0.29180965    -0.29900
H1035       H  0.63351552  0.71373641  0.24433390     0.14300
H1036       H  0.60012673  0.79847973  0.29867409     0.14900
C1037       C  0.59348565  0.77114107  0.05556800    -0.14700
C1038       C  0.62178141  0.73849926  0.03624874    -0.29900
H1039       H  0.59604673  0.80664162  0.04330855     0.14300
H1040       H  0.62145044  0.70391160  0.05092046     0.14900
C1041       C  0.39801013  0.48163794  0.06695294    -0.14700
C1042       C  0.37116101  0.51493956  0.04656613    -0.29900
H1043       H  0.39701695  0.44645581  0.05389466     0.14300
H1044       H  0.37603900  0.04437387  0.05306049     0.14900
C1045       C  0.37260476  0.97731927  0.29089507    -0.14700
C1046       C  0.38499360  0.00336900  0.25360514    -0.29900
H1047       H  0.39332229  0.94617637  0.29753886     0.14300
H1048       H  0.36753498  0.54035376  0.24790538     0.14900
C1049       C  0.60702760  0.00872247  0.25683390    -0.14700
C1050       C  0.62054440  0.98187528  0.29323286    -0.29900
H1051       H  0.62962326  0.54243923  0.24539436     0.14300
H1052       H  0.59964544  0.95103205  0.29976215     0.14900
C1053       C  0.62370944  0.51623019  0.04005721    -0.14700
C1054       C  0.59587054  0.48422156  0.06119349    -0.29900
H1055       H  0.62471057  0.55099739  0.05400897     0.14300
H1056       H  0.59872499  0.94556255  0.04654874     0.14900
O1057       O  0.45073025  0.52730995  0.43933869    -0.71200
O1058       O  0.54730702  0.54277863  0.53969209    -0.72200
O1059       O  0.55141220  0.53200514  0.44353660    -0.60800
O1060       O  0.44579637  0.53767295  0.53658626    -0.69200
O1061       O  0.44742283  0.95849580  0.55224368    -0.68800
O1062       O  0.54878764  0.94915884  0.45372422    -0.60000
O1063       O  0.55044696  0.95988672  0.55231308    -0.72500
O1064       O  0.44941820  0.94739281  0.45314658    -0.71300
Cu1065     Cu  0.49852195  0.53773348  0.48980694     1.04600
Cu1066     Cu  0.49902554  0.95104620  0.50349079     1.04300
C1067       C  0.43813103  0.48630970  0.42878247     0.95000
C1068       C  0.56706549  0.00030294  0.55967297     0.94100
C1069       C  0.56315511  0.98493172  0.43164315     0.86300
C1070       C  0.43030982  0.50137532  0.55704179     0.92600
C1071       C  0.34249769  0.99632232  0.66680792    -0.00700
C1072       C  0.65563015  0.99821234  0.33164723    -0.00700
O1073       O  0.44993490  0.80290343  0.45415699    -0.71200
O1074       O  0.55722956  0.79246285  0.54793124    -0.72200
O1075       O  0.54879870  0.80008131  0.44988468    -0.60800
O1076       O  0.45656676  0.79745614  0.55459351    -0.69200
O1077       O  0.45425717  0.72084398  0.54931774    -0.68800
O1078       O  0.54683843  0.72373902  0.44112019    -0.60000
O1079       O  0.55452953  0.71627705  0.53864183    -0.72500
O1080       O  0.44625542  0.72649541  0.44782367    -0.71300
Cu1081     Cu  0.50288672  0.80079206  0.50187525     1.04600
Cu1082     Cu  0.49991064  0.71906729  0.49424355     1.04300
C1083       C  0.43333811  0.76680098  0.43429804     0.95000
C1084       C  0.57351460  0.75194522  0.55678509     0.94100
C1085       C  0.56216174  0.76355863  0.42888153     0.86300
C1086       C  0.44281173  0.75844849  0.57017289     0.92600
C1087       C  0.34142392  0.75146484  0.33167366    -0.00700
C1088       C  0.65708750  0.75198311  0.33096553    -0.00700
O1089       O  0.94888054  0.78009684  0.61145667    -0.71200
O1090       O  0.05168800  0.79653885  0.37404648    -0.72200
O1091       O  0.04891044  0.77988146  0.61027086    -0.60800
O1092       O  0.95081856  0.79425132  0.37702264    -0.69200
O1093       O  0.95334096  0.71838558  0.38972155    -0.68800
O1094       O  0.04892661  0.70422756  0.62475806    -0.60000
O1095       O  0.05532369  0.72029364  0.38356088    -0.72500
O1096       O  0.94831646  0.70454304  0.62664736    -0.71300
Cu1097     Cu  0.99953738  0.79350676  0.32628470     1.04600
Cu1098     Cu  0.00141932  0.71201858  0.33825405     1.04300
C1099       C  0.93206001  0.73977027  0.60493513     0.95000
C1100       C  0.06967941  0.76080019  0.39387116     0.94100
C1101       C  0.06490836  0.73928182  0.60266918     0.86300
C1102       C  0.93614637  0.75834236  0.39865102     0.92600
C1103       C  0.15659308  0.74681846  0.49894537    -0.00700
C1104       C  0.84392132  0.74629587  0.49920220    -0.00700
O1105       O  0.04931554  0.96781978  0.61039623    -0.71200
O1106       O  0.95136019  0.95531624  0.37681639    -0.72200
O1107       O  0.94900786  0.96693332  0.61191685    -0.60800
O1108       O  0.05212565  0.95475337  0.37461916    -0.69200
O1109       O  0.05148386  0.52741813  0.38517084    -0.68800
O1110       O  0.94912433  0.53604186  0.62577399    -0.60000
O1111       O  0.95094420  0.52496426  0.39333931    -0.72500
O1112       O  0.05141458  0.53523820  0.62637547    -0.71300
Cu1113     Cu  0.00031239  0.95721095  0.32653052     1.04600
Cu1114     Cu  0.99620279  0.53332592  0.34040137     1.04300
C1115       C  0.06840419  0.49960846  0.60597943     0.96200
C1116       C  0.93731607  0.48436885  0.40446851     0.94100
C1117       C  0.93143843  0.50042155  0.60621181     0.86300
C1118       C  0.06740983  0.48728660  0.39582521     0.92600
C1119       C  0.15690199  0.00249460  0.49947708    -0.00700
C1120       C  0.84373756  0.00178182  0.49884573    -0.00700
N1121       N  0.79706049  0.62249752  0.52459692    -0.34900
N1122       N  0.75184306  0.55357069  0.58607277    -0.55400
N1123       N  0.70145367  0.62538146  0.64160216    -0.34900
N1124       N  0.74745047  0.69417279  0.58107355    -0.55400
C1125       C  0.82508896  0.58430258  0.52001358     0.28700
C1126       C  0.82543072  0.65985349  0.51829011     0.28700
C1127       C  0.67252255  0.58834027  0.64687637     0.28700
C1128       C  0.67384884  0.66390681  0.64577923     0.28700
C1129       C  0.76943799  0.52663769  0.55088261     0.37300
C1130       C  0.71996537  0.52676584  0.60960611     0.37300
C1131       C  0.77912791  0.72103178  0.55750539     0.37300
C1132       C  0.73094354  0.72071821  0.61699817     0.37300
C1133       C  0.87165797  0.59805764  0.51352861    -0.20100
C1134       C  0.87175093  0.64504416  0.51168893    -0.20100
C1135       C  0.62614455  0.60375381  0.65223052    -0.20100
C1136       C  0.62690370  0.65088114  0.65075137    -0.20100
C1137       C  0.78241369  0.98508925  0.57908161    -0.21200
C1138       C  0.75388871  0.98555875  0.61617467    -0.21200
C1139       C  0.78274556  0.76289466  0.57954311    -0.21200
C1140       C  0.75498295  0.76207865  0.61718966    -0.21200
C1141       C  0.80940959  0.53747183  0.52191534    -0.16600
C1142       C  0.81190773  0.70723617  0.52204538    -0.16600
C1143       C  0.69056400  0.71037028  0.64533957    -0.16500
C1144       C  0.68609358  0.54084667  0.64403757    -0.16500
H1145       H  0.90345644  0.57706176  0.51264465     0.16400
H1146       H  0.90355947  0.66557103  0.50889384     0.16400
H1147       H  0.59487565  0.58346718  0.32190291     0.16400
H1148       H  0.59483955  0.67245997  0.31810515     0.16400
H1149       H  0.80723422  0.95810996  0.57368374     0.14600
H1150       H  0.75630936  0.95853791  0.64136492     0.14600
H1151       H  0.80728561  0.78983517  0.57389905     0.14600
H1152       H  0.75755066  0.78875523  0.64253065     0.14600
H1153       H  0.76027342  0.62300667  0.52880628     0.27900
H1154       H  0.73836806  0.62445771  0.63867847     0.27900
N1155       N  0.74741869  0.80326903  0.41981144    -0.34900
N1156       N  0.80122094  0.87430503  0.47146865    -0.55400
N1157       N  0.74875296  0.94590943  0.41816109    -0.34900
N1158       N  0.69063568  0.87492374  0.36852185    -0.55400
C1159       C  0.77483066  0.77496516  0.44696375     0.28700
C1160       C  0.71774992  0.77631049  0.39402954     0.28700
C1161       C  0.77459451  0.97385281  0.44666766     0.28700
C1162       C  0.71760658  0.97298988  0.39363794     0.28700
C1163       C  0.81958338  0.83579575  0.49287258     0.37300
C1164       C  0.81980552  0.91254515  0.49252291     0.37300
C1165       C  0.68574039  0.83743090  0.34075591     0.37300
C1166       C  0.68521513  0.91261643  0.34075546     0.37300
C1167       C  0.76248961  0.72962150  0.43643685    -0.20100
C1168       C  0.72580262  0.73062623  0.40609164    -0.20100
C1169       C  0.76038296  0.01921139  0.43755141    -0.20100
C1170       C  0.72391846  0.01836572  0.40699508    -0.20100
C1171       C  0.84861346  0.85075855  0.52846229    -0.21200
C1172       C  0.84879705  0.89720522  0.52821162    -0.21200
C1173       C  0.67974334  0.85166056  0.29516952    -0.21200
C1174       C  0.67914410  0.89883703  0.29520701    -0.21200
C1175       C  0.81094856  0.78783332  0.48056963    -0.16600
C1176       C  0.68766488  0.79039210  0.35585977    -0.16600
C1177       C  0.68715689  0.95948781  0.35577966    -0.16500
C1178       C  0.81092642  0.96061302  0.48020527    -0.16500
H1179       H  0.77828093  0.69736273  0.44677480     0.16400
H1180       H  0.70936100  0.69965088  0.39336676     0.16400
H1181       H  0.79481861  0.54861954  0.43578320     0.16400
H1182       H  0.72985004  0.55213378  0.37837680     0.16400
H1183       H  0.86588265  0.83296353  0.55640615     0.14600
H1184       H  0.86614470  0.91477114  0.55599798     0.14600
H1185       H  0.68213588  0.82961737  0.59844263     0.14600
H1186       H  0.68118034  0.91925351  0.59838487     0.14600
H1187       H  0.75033573  0.83863612  0.41702609     0.27900
H1188       H  0.75473743  0.91116715  0.41259792     0.27900
N1189       N  0.24834607  0.55244722  0.58761896    -0.34900
N1190       N  0.30028106  0.62459586  0.64317855    -0.55400
N1191       N  0.25376165  0.69426302  0.58014765    -0.34900
N1192       N  0.20206759  0.62222078  0.52625183    -0.55400
C1193       C  0.27991048  0.52563903  0.61194634     0.28700
C1194       C  0.22727297  0.52482597  0.55509997     0.28700
C1195       C  0.26997100  0.71944860  0.61708430     0.28700
C1196       C  0.21849219  0.71958093  0.55962101     0.28700
C1197       C  0.32988441  0.58740604  0.64545122     0.37300
C1198       C  0.32834480  0.66279821  0.64449205     0.37300
C1199       C  0.17388957  0.58456887  0.52081064     0.37300
C1200       C  0.17430303  0.65962653  0.51669780     0.37300
C1201       C  0.27817576  0.48121351  0.59496573    -0.20100
C1202       C  0.24712907  0.48102849  0.55956314    -0.20100
C1203       C  0.24270737  0.75912930  0.62045621    -0.20100
C1204       C  0.21242109  0.75966186  0.58442677    -0.20100
C1205       C  0.37647351  0.60251465  0.64491088    -0.21200
C1206       C  0.37547781  0.64967046  0.64526858    -0.21200
C1207       C  0.12798328  0.59861580  0.51099351    -0.21200
C1208       C  0.12844900  0.64540917  0.50723416    -0.21200
C1209       C  0.31573949  0.53993069  0.64422189    -0.16600
C1210       C  0.18909367  0.53749463  0.52373198    -0.16600
C1211       C  0.18727638  0.70686360  0.52250491    -0.16500
C1212       C  0.31120345  0.70917968  0.64462540    -0.16500
H1213       H  0.24038756  0.96313193  0.64766195     0.16400
H1214       H  0.18701114  0.96279329  0.58100195     0.16400
H1215       H  0.23982657  0.78468472  0.64696853     0.16400
H1216       H  0.18555153  0.78516694  0.58113698     0.16400
H1217       H  0.40634096  0.57928339  0.31977013     0.14600
H1218       H  0.40681179  0.66863259  0.31988923     0.14600
H1219       H  0.09633559  0.57778696  0.50866364     0.14600
H1220       H  0.09697745  0.66631348  0.50216229     0.14600
H1221       H  0.24053531  0.58704137  0.59402226     0.27900
H1222       H  0.26826933  0.66345683  0.56770615     0.27900
N1223       N  0.30522458  0.87402906  0.36784786    -0.34900
N1224       N  0.25425468  0.94480609  0.42325660    -0.55400
N1225       N  0.19958428  0.87445574  0.47344392    -0.34900
N1226       N  0.25405352  0.80375272  0.42273242    -0.55400
C1227       C  0.30579574  0.91217905  0.34018979     0.28700
C1228       C  0.30588676  0.83633870  0.33981740     0.28700
C1229       C  0.18208004  0.91304380  0.49517333     0.28700
C1230       C  0.18198877  0.83584998  0.49502740     0.28700
C1231       C  0.28443380  0.97179497  0.39792620     0.37300
C1232       C  0.22803612  0.97377705  0.45049796     0.37300
C1233       C  0.28435623  0.77658228  0.39760067     0.37300
C1234       C  0.22825112  0.77497011  0.45053858     0.37300
C1235       C  0.30401968  0.89872940  0.29424307    -0.20100
C1236       C  0.30337427  0.85098773  0.29400436    -0.20100
C1237       C  0.15352534  0.89776822  0.53115254    -0.20100
C1238       C  0.15333458  0.85103174  0.53096259    -0.20100
C1239       C  0.27869416  0.01739159  0.41088376    -0.21200
C1240       C  0.24199042  0.01893527  0.44090134    -0.21200
C1241       C  0.27890383  0.73103561  0.41105294    -0.21200
C1242       C  0.24260288  0.72973067  0.44144395    -0.21200
C1243       C  0.30870239  0.95859568  0.35607353    -0.16600
C1244       C  0.30887436  0.78961260  0.35571976    -0.16600
C1245       C  0.19083306  0.78787360  0.48276055    -0.16500
C1246       C  0.19084123  0.96108595  0.48291576    -0.16500
H1247       H  0.31364616  0.92064686  0.59963739     0.16400
H1248       H  0.30996082  0.83160487  0.59791753     0.16400
H1249       H  0.13532446  0.91571418  0.55828917     0.16400
H1250       H  0.13476151  0.83299669  0.55780928     0.16400
H1251       H  0.29447275  0.54832554  0.39753493     0.14600
H1252       H  0.22142551  0.55001264  0.44663522     0.14600
H1253       H  0.29519653  0.70016016  0.39743885     0.14600
H1254       H  0.22823160  0.69712767  0.45193039     0.14600
H1255       H  0.30883087  0.87374130  0.40390308     0.27900
H1256       H  0.21939283  0.87444679  0.44325207     0.27900
C1257       C  0.10115376  0.48010869  0.43445826    -0.14700
C1258       C  0.12779143  0.51257179  0.45638110    -0.29900
H1259       H  0.10494424  0.94763485  0.44542780     0.14300
H1260       H  0.12937920  0.54694828  0.44135157     0.14900
C1261       C  0.11502945  0.99191240  0.53313992    -0.14700
C1262       C  0.10529205  0.01644263  0.57206228    -0.29900
H1263       H  0.09523946  0.45551642  0.52678204     0.14300
H1264       H  0.12675697  0.04534052  0.58279137     0.14900
C1265       C  0.89169403  0.01459171  0.57406451    -0.14700
C1266       C  0.88434013  0.99120408  0.53409035    -0.29900
H1267       H  0.87041408  0.53930689  0.58439623     0.14300
H1268       H  0.91176239  0.96643774  0.52452853     0.14900
C1269       C  0.90525019  0.47689124  0.44376450    -0.14700
C1270       C  0.87659634  0.50967774  0.46240299    -0.29900
H1271       H  0.90362170  0.44159476  0.45674510     0.14300
H1272       H  0.86936436  0.04938643  0.43922681     0.14900
C1273       C  0.13071069  0.73487404  0.45312473    -0.14700
C1274       C  0.10429843  0.76808680  0.43149983    -0.29900
H1275       H  0.13286981  0.70074547  0.43779545     0.14300
H1276       H  0.10508399  0.80317343  0.44483337     0.14900
C1277       C  0.11449829  0.75708124  0.53256944    -0.14700
C1278       C  0.10469094  0.73169049  0.57116047    -0.29900
H1279       H  0.08865443  0.78342914  0.52287626     0.14300
H1280       H  0.12613617  0.70241407  0.58164171     0.14900
C1281       C  0.89152730  0.73287643  0.57456545    -0.14700
C1282       C  0.88420501  0.75649127  0.53454680    -0.29900
H1283       H  0.86870055  0.70513812  0.58594271     0.14300
H1284       H  0.91156734  0.78113202  0.52496452     0.14900
C1285       C  0.90097495  0.76542725  0.43562972    -0.14700
C1286       C  0.87257628  0.73297448  0.45539583    -0.29900
H1287       H  0.89949939  0.80064344  0.44858875     0.14300
H1288       H  0.87093075  0.69872514  0.44028275     0.14900
C1289       C  0.41866444  0.75634823  0.61569269    -0.14700
C1290       C  0.37181710  0.76486380  0.62164657    -0.29900
H1291       H  0.44034025  0.74326110  0.64388598     0.14300
H1292       H  0.35259440  0.77328446  0.59022272     0.14900
C1293       C  0.40131524  0.77319716  0.39375114    -0.14700
C1294       C  0.37653585  0.73928238  0.37195398    -0.29900
H1295       H  0.39791923  0.80846168  0.38087371     0.14300
H1296       H  0.37843543  0.70454805  0.38614205     0.14900
C1297       C  0.61532263  0.74432908  0.58687130    -0.14700
C1298       C  0.62469143  0.76849341  0.62599963    -0.29900
H1299       H  0.63527884  0.71347132  0.57840921     0.14300
H1300       H  0.60186978  0.79807711  0.63291694     0.14900
C1301       C  0.59406591  0.77007783  0.38934100    -0.14700
C1302       C  0.62311951  0.73784322  0.37064160    -0.29900
H1303       H  0.59546292  0.80534687  0.37624313     0.14300
H1304       H  0.62448713  0.70383876  0.38661888     0.14900
C1305       C  0.40561525  0.47802462  0.38985417    -0.14700
C1306       C  0.37720208  0.51074385  0.37044128    -0.29900
H1307       H  0.40376051  0.44257821  0.37758041     0.14300
H1308       H  0.37795101  0.04322240  0.38330151     0.14900
C1309       C  0.37664777  0.97946078  0.62768276    -0.14700
C1310       C  0.38911277  0.00632201  0.59095783    -0.29900
H1311       H  0.39731671  0.94814342  0.63351040     0.14300
H1312       H  0.36646576  0.53486827  0.57689479     0.14900
C1313       C  0.60878431  0.00808090  0.59011465    -0.14700
C1314       C  0.62286196  0.98080894  0.62616673    -0.29900
H1315       H  0.62839612  0.54308619  0.57981715     0.14300
H1316       H  0.60228323  0.94969983  0.63235186     0.14900
C1317       C  0.63013177  0.51758168  0.37724692    -0.14700
C1318       C  0.60413850  0.48480028  0.39909572    -0.29900
H1319       H  0.63129603  0.55234832  0.39119487     0.14300
H1320       H  0.59789737  0.94260776  0.38002939     0.14900
O1321       O  0.44876439  0.53708771  0.78251054    -0.71200
O1322       O  0.55562047  0.54179346  0.87374871    -0.72200
O1323       O  0.54974076  0.53290778  0.77783882    -0.60800
O1324       O  0.45401787  0.54643154  0.87864897    -0.69200
O1325       O  0.45005353  0.96077336  0.88624985    -0.68800
O1326       O  0.55067451  0.94941209  0.78754264    -0.60000
O1327       O  0.55296168  0.96166729  0.88554230    -0.72500
O1328       O  0.45164742  0.94828906  0.78834619    -0.71300
Cu1329     Cu  0.50225546  0.54229685  0.82813436     1.04600
Cu1330     Cu  0.50141038  0.95241050  0.83766440     1.04300
C1331       C  0.42809778  0.49827744  0.77713142     0.95000
C1332       C  0.56995395  0.00200698  0.89216593     0.94100
C1333       C  0.56511809  0.98483339  0.76498148     0.86300
C1334       C  0.43748245  0.51129326  0.90016427     0.92600
C1335       C  0.34228489  0.99791564  0.99735974    -0.00700
C1336       C  0.65766110  0.99710255  0.66507731    -0.00700
O1337       O  0.44988184  0.79999032  0.78722230    -0.71200
O1338       O  0.55556941  0.79264106  0.88196208    -0.72200
O1339       O  0.54892879  0.80013678  0.78403348    -0.60800
O1340       O  0.45459613  0.79431435  0.88732682    -0.69200
O1341       O  0.45635536  0.71761250  0.88284439    -0.68800
O1342       O  0.54782598  0.72389175  0.77431046    -0.60000
O1343       O  0.55624367  0.71657331  0.87106801    -0.72500
O1344       O  0.44724997  0.72346143  0.78139407    -0.71300
Cu1345     Cu  0.50185573  0.79937099  0.83540246     1.04600
Cu1346     Cu  0.50140738  0.71761110  0.82742625     1.04300
C1347       C  0.43392877  0.76354473  0.76759261     0.95000
C1348       C  0.57376035  0.75267807  0.88963035     0.94100
C1349       C  0.56303114  0.76394069  0.76280626     0.86300
C1350       C  0.44287802  0.75479774  0.90326824     0.92600
C1351       C  0.34247743  0.75009375  0.66489517    -0.00700
C1352       C  0.65863295  0.75142250  0.66541455    -0.00700
O1353       O  0.95209812  0.78181773  0.94598225    -0.71200
O1354       O  0.04984679  0.79281996  0.70786175    -0.72200
O1355       O  0.05230239  0.78436844  0.94708056    -0.60800
O1356       O  0.94934969  0.79335051  0.70864132    -0.69200
O1357       O  0.94910762  0.71769501  0.72279345    -0.68800
O1358       O  0.05412790  0.70905835  0.96316890    -0.60000
O1359       O  0.05073048  0.71705377  0.72147178    -0.72500
O1360       O  0.95360945  0.70651719  0.96205227    -0.71300
Cu1361     Cu  0.99927732  0.78922391  0.65913183     1.04600
Cu1362     Cu  0.99932232  0.70813669  0.67406863     1.04300
C1363       C  0.93675819  0.74095756  0.93929003     0.95000
C1364       C  0.06614884  0.75763045  0.72979742     0.94100
C1365       C  0.06922861  0.74387492  0.94032038     0.86300
C1366       C  0.93343518  0.75838824  0.73097038     0.92600
C1367       C  0.15565208  0.74678022  0.83229814    -0.00700
C1368       C  0.84535324  0.74752017  0.83474981    -0.00700
O1369       O  0.05213330  0.96538765  0.94697401    -0.71200
O1370       O  0.95021951  0.95320352  0.70949388    -0.72200
O1371       O  0.95188981  0.96710586  0.94631931    -0.60800
O1372       O  0.05076961  0.95435214  0.70809317    -0.69200
O1373       O  0.04971096  0.52507142  0.72388721    -0.68800
O1374       O  0.95292021  0.53760950  0.96068440    -0.60000
O1375       O  0.94876802  0.52616802  0.72208476    -0.72500
O1376       O  0.05507185  0.53446709  0.96181122    -0.71300
Cu1377     Cu  0.99988257  0.95783082  0.65953925     1.04600
Cu1378     Cu  0.99991937  0.53332185  0.67437468     1.04300
C1379       C  0.07196824  0.49898823  0.94113267     0.96200
C1380       C  0.93289194  0.48596175  0.73150524     0.94100
C1381       C  0.93556733  0.50308534  0.93896829     0.86300
C1382       C  0.06426352  0.48455097  0.73473579     0.92600
C1383       C  0.15513085  0.00193459  0.83237141    -0.00700
C1384       C  0.84467520  0.00059891  0.83425156    -0.00700
N1385       N  0.79894681  0.62436133  0.85943237    -0.34900
N1386       N  0.74811276  0.55523191  0.91527703    -0.55400
N1387       N  0.70156606  0.62607530  0.97505542    -0.34900
N1388       N  0.74859660  0.69557949  0.91599619    -0.55400
C1389       C  0.82643501  0.58647998  0.85179034     0.28700
C1390       C  0.82729993  0.66153063  0.85284444     0.28700
C1391       C  0.67318407  0.58824957  0.97810728     0.28700
C1392       C  0.67330818  0.66434135  0.97807440     0.28700
C1393       C  0.77936091  0.52730131  0.89211864     0.37300
C1394       C  0.72968320  0.52900759  0.95060330     0.37300
C1395       C  0.78249416  0.72178682  0.89484943     0.37300
C1396       C  0.73146686  0.72155706  0.95203777     0.37300
C1397       C  0.87256395  0.59999179  0.84267179    -0.20100
C1398       C  0.87308851  0.64678814  0.84321388    -0.20100
C1399       C  0.62630943  0.60285966  0.98098329    -0.20100
C1400       C  0.62636914  0.65036750  0.98065984    -0.20100
C1401       C  0.78617154  0.98739743  0.91780208    -0.21200
C1402       C  0.75671080  0.98899500  0.95429618    -0.21200
C1403       C  0.78742377  0.76240877  0.91879509    -0.21200
C1404       C  0.75719425  0.76195094  0.95473740    -0.21200
C1405       C  0.81241631  0.53974675  0.85645254    -0.16600
C1406       C  0.81433502  0.70861491  0.85841108    -0.16600
C1407       C  0.68977172  0.71122555  0.97856798    -0.16500
C1408       C  0.68918641  0.54107240  0.97851124    -0.16500
H1409       H  0.90403787  0.57881337  0.83914326     0.16400
H1410       H  0.90499944  0.66709018  0.83985186     0.16400
H1411       H  0.59406324  0.58356129  0.65448697     0.16400
H1412       H  0.59559812  0.67261559  0.65145260     0.16400
H1413       H  0.81197868  0.96096601  0.91417291     0.14600
H1414       H  0.75911373  0.96329328  0.98090358     0.14600
H1415       H  0.81378180  0.78805034  0.91525223     0.14600
H1416       H  0.75909861  0.78806841  0.98075370     0.14600
H1417       H  0.76251809  0.62496310  0.86575120     0.27900
H1418       H  0.73862272  0.62572529  0.97438930     0.27900
N1419       N  0.74910558  0.80293989  0.75443440    -0.34900
N1420       N  0.79984138  0.87419020  0.80890279    -0.55400
N1421       N  0.74886319  0.94530841  0.75410717    -0.34900
N1422       N  0.69242456  0.87413058  0.70276919    -0.55400
C1423       C  0.77502363  0.77496080  0.78329396     0.28700
C1424       C  0.71922900  0.77590133  0.72886267     0.28700
C1425       C  0.77425819  0.97329490  0.78302040     0.28700
C1426       C  0.71867039  0.97232062  0.72838479     0.28700
C1427       C  0.81890729  0.83589424  0.82989593     0.37300
C1428       C  0.81836146  0.91235018  0.83002067     0.37300
C1429       C  0.68791181  0.83662159  0.67497802     0.37300
C1430       C  0.68746792  0.91175812  0.67485989     0.37300
C1431       C  0.76179384  0.72957130  0.77373578    -0.20100
C1432       C  0.72614518  0.73041649  0.74213028    -0.20100
C1433       C  0.76037954  0.01863561  0.77336807    -0.20100
C1434       C  0.72492969  0.01775778  0.74161691    -0.20100
C1435       C  0.84798382  0.85085812  0.86541865    -0.21200
C1436       C  0.84743772  0.89723783  0.86563648    -0.21200
C1437       C  0.68245448  0.85072323  0.62930907    -0.21200
C1438       C  0.68201839  0.89790924  0.62925787    -0.21200
C1439       C  0.81113254  0.78818458  0.81702692    -0.16600
C1440       C  0.68957777  0.78969381  0.69022888    -0.16600
C1441       C  0.68903960  0.95862323  0.68983430    -0.16500
C1442       C  0.81039730  0.96010627  0.81693065    -0.16500
H1443       H  0.77611414  0.69726247  0.78562350     0.16400
H1444       H  0.70946024  0.69948917  0.72950560     0.16400
H1445       H  0.78109744  0.55077731  0.77856765     0.16400
H1446       H  0.71528273  0.55137501  0.72199245     0.16400
H1447       H  0.86685835  0.83317650  0.89236732     0.14600
H1448       H  0.86559895  0.91487820  0.89284167     0.14600
H1449       H  0.68320840  0.83182021  0.93104995     0.14600
H1450       H  0.68284762  0.92198136  0.93138145     0.14600
H1451       H  0.75408785  0.83793582  0.74967504     0.27900
H1452       H  0.75442100  0.91038634  0.74924715     0.27900
N1453       N  0.24715857  0.55385310  0.91993696    -0.34900
N1454       N  0.29901463  0.62683456  0.97436239    -0.55400
N1455       N  0.25454507  0.69518235  0.91241707    -0.34900
N1456       N  0.20223831  0.62278672  0.85763275    -0.55400
C1457       C  0.28166555  0.52855776  0.94174996     0.28700
C1458       C  0.23071890  0.52783106  0.88359728     0.28700
C1459       C  0.27151882  0.72143007  0.94834593     0.28700
C1460       C  0.22040008  0.72087729  0.89056223     0.28700
C1461       C  0.32648496  0.58925349  0.98358493     0.37300
C1462       C  0.32750019  0.66436296  0.97983221     0.37300
C1463       C  0.17401900  0.58502416  0.85300788     0.37300
C1464       C  0.17357741  0.66013899  0.85141831     0.37300
C1465       C  0.28715627  0.48745543  0.91834366    -0.20100
C1466       C  0.25715369  0.48746488  0.88192022    -0.20100
C1467       C  0.24572276  0.76201612  0.94977044    -0.20100
C1468       C  0.21623253  0.76229219  0.91333687    -0.20100
C1469       C  0.37246534  0.60330873  0.99281984    -0.21200
C1470       C  0.37316543  0.65003798  0.98973981    -0.21200
C1471       C  0.12734568  0.59879790  0.84689119    -0.21200
C1472       C  0.12714422  0.64581973  0.84522411    -0.21200
C1473       C  0.31286654  0.54202612  0.97870405    -0.16600
C1474       C  0.19034523  0.53833154  0.85465289    -0.16600
C1475       C  0.18739442  0.70732626  0.85523547    -0.16500
C1476       C  0.31171923  0.71110743  0.97732706    -0.16500
H1477       H  0.24195250  0.96226531  0.97693881     0.16400
H1478       H  0.19068564  0.96051341  0.90927980     0.16400
H1479       H  0.24261427  0.78819457  0.97558316     0.16400
H1480       H  0.19041848  0.78845334  0.90916734     0.16400
H1481       H  0.40846641  0.58248379  0.64004440     0.14600
H1482       H  0.40649281  0.67111014  0.64373489     0.14600
H1483       H  0.09581285  0.57768999  0.84608962     0.14600
H1484       H  0.09537455  0.66677290  0.84272802     0.14600
H1485       H  0.23348256  0.58546592  0.93117398     0.27900
H1486       H  0.26737886  0.66309746  0.90162550     0.27900
N1487       N  0.30820596  0.87340386  0.70322519    -0.34900
N1488       N  0.25248724  0.94479167  0.75507610    -0.55400
N1489       N  0.19714256  0.87427821  0.80352399    -0.34900
N1490       N  0.25254544  0.80299315  0.75359393    -0.55400
C1491       C  0.31171756  0.91167146  0.67596173     0.28700
C1492       C  0.31157043  0.83605007  0.67483037     0.28700
C1493       C  0.18049879  0.91273147  0.82618244     0.28700
C1494       C  0.18034320  0.83573287  0.82576550     0.28700
C1495       C  0.28206115  0.97227166  0.72973779     0.37300
C1496       C  0.22412876  0.97367165  0.78034518     0.37300
C1497       C  0.28246935  0.77526900  0.72852901     0.37300
C1498       C  0.22495697  0.77446938  0.78008527     0.37300
C1499       C  0.31455946  0.89856180  0.63000798    -0.20100
C1500       C  0.31385515  0.85127099  0.62923092    -0.20100
C1501       C  0.15313658  0.89743528  0.86289716    -0.20100
C1502       C  0.15282901  0.85098866  0.86253140    -0.20100
C1503       C  0.27336194  0.01805663  0.74059949    -0.21200
C1504       C  0.23555149  0.01902428  0.76911551    -0.21200
C1505       C  0.27472627  0.72966752  0.74056531    -0.21200
C1506       C  0.23745617  0.72898438  0.76997572    -0.21200
C1507       C  0.31128665  0.95831079  0.69135301    -0.16600
C1508       C  0.31121144  0.78883405  0.68950982    -0.16600
C1509       C  0.18882064  0.78771660  0.81355350    -0.16500
C1510       C  0.18853901  0.96077256  0.81406079    -0.16500
H1511       H  0.31366369  0.92172395  0.93126988     0.16400
H1512       H  0.30910017  0.83309138  0.93019243     0.16400
H1513       H  0.13606284  0.91501476  0.89094257     0.16400
H1514       H  0.13531866  0.83344350  0.89034828     0.16400
H1515       H  0.27438192  0.55175467  0.71441150     0.14600
H1516       H  0.20664646  0.54922815  0.76908756     0.14600
H1517       H  0.29147154  0.69861794  0.72795024     0.14600
H1518       H  0.22156469  0.69688637  0.78019674     0.14600
H1519       H  0.30746440  0.87286087  0.73943096     0.27900
H1520       H  0.21566766  0.87421741  0.77249236     0.27900
C1521       C  0.09700449  0.47716880  0.77398020    -0.14700
C1522       C  0.12397046  0.51034018  0.79419415    -0.29900
H1523       H  0.10218419  0.94642783  0.78014468     0.14300
H1524       H  0.12341436  0.54463345  0.77890931     0.14900
C1525       C  0.11497822  0.99089661  0.86772786    -0.14700
C1526       C  0.10809162  0.01374510  0.90812818    -0.29900
H1527       H  0.10258708  0.45053513  0.86651745     0.14300
H1528       H  0.13051922  0.04198359  0.91879527     0.14900
C1529       C  0.89588932  0.01563516  0.90746757    -0.14700
C1530       C  0.88628322  0.99038887  0.86884348    -0.29900
H1531       H  0.87231624  0.54032885  0.91936709     0.14300
H1532       H  0.91248543  0.96430026  0.85957049     0.14900
C1533       C  0.89798302  0.47898385  0.76843516    -0.14700
C1534       C  0.87137821  0.51240917  0.78891978    -0.29900
H1535       H  0.89625601  0.44375611  0.78155061     0.14300
H1536       H  0.86889956  0.04650515  0.77297419     0.14900
C1537       C  0.12780563  0.73331102  0.78830700    -0.14700
C1538       C  0.10058861  0.76586677  0.76696425    -0.29900
H1539       H  0.12946319  0.69876872  0.77384844     0.14300
H1540       H  0.10167005  0.80133020  0.77925880     0.14900
C1541       C  0.11510498  0.75801220  0.86735738    -0.14700
C1542       C  0.10851907  0.73576093  0.90833710    -0.29900
H1543       H  0.08801219  0.78306134  0.85739252     0.14300
H1544       H  0.13134700  0.70775157  0.91957509     0.14900
C1545       C  0.89684522  0.73270100  0.90790038    -0.14700
C1546       C  0.88715436  0.75756885  0.86883742    -0.29900
H1547       H  0.87535673  0.70372365  0.91863735     0.14300
H1548       H  0.91327243  0.78335006  0.85896358     0.14900
C1549       C  0.89921844  0.76697370  0.76845182    -0.14700
C1550       C  0.87196893  0.73460944  0.78965957    -0.29900
H1551       H  0.89855719  0.80227214  0.78127154     0.14300
H1552       H  0.86943136  0.70059501  0.77418560     0.14900
C1553       C  0.41828790  0.75184292  0.94847632    -0.14700
C1554       C  0.37316281  0.76639218  0.95552981    -0.29900
H1555       H  0.43838260  0.73516769  0.97583083     0.14300
H1556       H  0.35518669  0.77790248  0.92449420     0.14900
C1557       C  0.40239031  0.76973241  0.72688782    -0.14700
C1558       C  0.37682865  0.73639496  0.70515419    -0.29900
H1559       H  0.40004234  0.80495287  0.71367628     0.14300
H1560       H  0.37771288  0.70147462  0.71904454     0.14900
C1561       C  0.61602987  0.74612964  0.91893312    -0.14700
C1562       C  0.62460828  0.77018917  0.95805569    -0.29900
H1563       H  0.63664069  0.71570226  0.91038178     0.14300
H1564       H  0.60147325  0.79956751  0.96492507     0.14900
C1565       C  0.59581938  0.77068199  0.72391547    -0.14700
C1566       C  0.62424126  0.73792764  0.70497741    -0.29900
H1567       H  0.59803674  0.80605817  0.71122927     0.14300
H1568       H  0.62458643  0.70370848  0.72051541     0.14900
C1569       C  0.38527596  0.49445330  0.74850615    -0.14700
C1570       C  0.38014240  0.51670322  0.70740125    -0.29900
H1571       H  0.36162677  0.46715577  0.75941413     0.14300
H1572       H  0.37416021  0.04139833  0.72483850     0.14900
C1573       C  0.37624653  0.98092826  0.95820740    -0.14700
C1574       C  0.39000760  0.00829350  0.92236896    -0.29900
H1575       H  0.39684832  0.94959866  0.96420754     0.14300
H1576       H  0.37404944  0.54678647  0.91848679     0.14900
C1577       C  0.61196199  0.00932310  0.92167509    -0.14700
C1578       C  0.62332908  0.98353804  0.95942537    -0.29900
H1579       H  0.63782711  0.53723612  0.91051189     0.14300
H1580       H  0.60133003  0.95353598  0.96643357     0.14900
C1581       C  0.62395578  0.51608448  0.70927378    -0.14700
C1582       C  0.59572717  0.48375850  0.72931970    -0.29900
H1583       H  0.62560346  0.55049030  0.72403851     0.14300
H1584       H  0.59870855  0.94190357  0.71289238     0.14900
loop_ 
_geom_bond_atom_site_label_1 
_geom_bond_atom_site_label_2 
_geom_bond_distance 
_geom_bond_site_symmetry_2 
_ccdc_geom_bond_type 
O1           Cu9   1.994       .  S
O1           C11   1.274   1_545  A
O2           Cu9   2.007       .  S
O2          C804   1.279       .  A
O3           Cu9   2.010       .  S
O3          C805   1.275   1_545  A
O4           Cu9   2.011       .  S
O4           C14   1.280   1_545  A
O5          Cu10   2.003       .  S
O5          C806   1.274       .  A
O6          Cu10   2.006       .  S
O6           C13   1.279       .  A
O7          Cu10   2.005       .  S
O7           C12   1.275       .  A
O8          Cu10   1.988       .  S
O8          C803   1.277       .  A
Cu9        Cu802   2.376   1_545  S
Cu10       Cu801   2.381       .  S
C11         O800   1.279       .  A
C11         C249   1.461       .  S
C12         O794   1.276       .  A
C12         C257   1.458       .  S
C13         O795   1.276       .  A
C13        C1054   1.469       .  S
C14         O797   1.278       .  A
C14        C1046   1.480   1_565  S
C15         C253   1.549       .  S
C15        C1306   1.546       .  S
C15         C945   1.600       .  S
C15         C451   1.583       .  S
C16         C786   1.549       .  S
C16        C1053   1.548   1_556  S
C16         C121   1.583   1_556  S
C16        C1408   1.600       .  S
O17         Cu25   2.005       .  S
O17          C27   1.279       .  A
O18         Cu25   2.019       .  S
O18          C28   1.278       .  A
O19         Cu25   1.988       .  S
O19          C29   1.275       .  A
O20         Cu25   1.991       .  S
O20          C30   1.271       .  A
O21         Cu26   2.033       .  S
O21          C30   1.283       .  A
O22         Cu26   2.039       .  S
O22          C29   1.280       .  A
O23         Cu26   1.973       .  S
O23          C28   1.273       .  A
O24         Cu26   2.007       .  S
O24          C27   1.275       .  A
Cu25        Cu26   2.376       .  S
C27         C237   1.466       .  S
C28         C241   1.457       .  S
C29         C245   1.471       .  S
C30         C233   1.467       .  S
C31         C238   1.547       .  S
C31         C762   1.552   1_554  S
C31         C188   1.609       .  S
C31         C684   1.584   1_554  S
C32         C246   1.552   1_556  S
C32         C770   1.551       .  S
C32         C120   1.583   1_556  S
C32         C615   1.598       .  S
O33        Cu305   2.026       .  S
O33          C43   1.278       .  A
O34         Cu41   2.018   1_554  S
O34          C44   1.279       .  A
O35        Cu305   2.024   1_455  S
O35          C45   1.277       .  A
O36         Cu41   2.023   1_654  S
O36          C46   1.282       .  A
O37         Cu42   2.008   1_655  S
O37          C46   1.274       .  A
O38        Cu306   2.007   1_455  S
O38          C45   1.279       .  A
O39         Cu42   2.008       .  S
O39          C44   1.277       .  A
O40        Cu306   2.000       .  S
O40          C43   1.277       .  A
Cu41        O561   2.031   1_455  S
Cu41        O563   2.023       .  S
Cu41        Cu42   2.376   1_556  S
Cu42        O566   1.992   1_554  S
Cu42        O568   2.013   1_454  S
C43         C225   1.471       .  S
C44         C218   1.473       .  S
C45         C222   1.475       .  S
C46         C229   1.473       .  S
C47         C217   1.542       .  S
C47         C221   1.554       .  S
C47         C155   1.606       .  S
C47         C189   1.589       .  S
C48         C226   1.557       .  S
C48         C230   1.552       .  S
C48          C86   1.597       .  S
C48         C119   1.572       .  S
O49        Cu321   2.022   1_455  S
O49         C851   1.276       .  A
O50         Cu57   2.019   1_654  S
O50         C852   1.281       .  A
O51        Cu321   2.024       .  S
O51         C853   1.278       .  A
O52         Cu57   2.022   1_554  S
O52         C854   1.279       .  A
O53         Cu58   2.027       .  S
O53          C62   1.280   1_545  A
O54        Cu322   1.982   1_655  S
O54          C61   1.275       .  A
O55         Cu58   2.006   1_655  S
O55          C60   1.274   1_545  A
O56        Cu322   2.001       .  S
O56          C59   1.280       .  A
Cu57        O577   2.025       .  S
Cu57        O579   2.037   1_455  S
Cu57       Cu850   2.375   1_556  S
Cu58        O582   2.008   1_454  S
Cu58        O584   1.983   1_554  S
Cu58       Cu849   2.378   1_544  S
C59         O841   1.273   1_545  A
C59         C998   1.463       .  S
C60         O842   1.281       .  A
C60         C213   1.469       .  S
C61         O843   1.276   1_545  A
C61        C1001   1.455       .  S
C62         O844   1.278       .  A
C62         C201   1.479       .  S
C63         C205   1.554       .  S
C63         C994   1.548       .  S
C63         C190   1.591       .  S
C63         C946   1.610       .  S
C64         C210   1.554       .  S
C64        C1006   1.551       .  S
C64         C122   1.572       .  S
C64         C877   1.598       .  S
N65          C70   1.360       .  A
N65          C69   1.356       .  A
N65          H97   1.044       .  S
N66          C73   1.367       .  A
N66          C74   1.373       .  A
N67          C72   1.357       .  A
N67          C71   1.362       .  A
N67          H98   1.044       .  S
N68          C75   1.372       .  A
N68          C76   1.365       .  A
C69          C77   1.388       .  A
C69          C85   1.424       .  A
C70          C86   1.422       .  A
C70          C78   1.383       .  A
C71          C79   1.386       .  A
C71          C88   1.428       .  A
C72          C87   1.426       .  A
C72          C80   1.386       .  A
C73          C85   1.436       .  A
C73         C873   1.370   1_545  A
C74          C88   1.437       .  A
C74         C874   1.376   1_545  A
C75          C83   1.378       .  A
C75          C86   1.437       .  A
C76          C84   1.371       .  A
C76          C87   1.433       .  A
C77          C78   1.365       .  A
C77          H89   1.080       .  S
C78          H90   1.081       .  S
C79          C80   1.364       .  A
C79         H355   1.080       .  S
C80         H356   1.081       .  S
C81          C82   1.335       .  A
C81         C865   1.380       .  A
C81          H93   1.065       .  S
C82         C866   1.370       .  A
C82          H94   1.056       .  S
C83          C84   1.334       .  A
C83          H95   1.064       .  S
C84          H96   1.058       .  S
C85         C856   1.590       .  S
C87         C296   1.587       .  S
C88        C1072   1.602   1_545  S
H91         C607   1.080       .  S
H92         C608   1.081       .  S
N99         C104   1.362       .  A
N99         C103   1.362       .  A
N99         H131   1.029       .  S
N100        C107   1.356       .  A
N100        C108   1.357       .  A
N101        C106   1.360       .  A
N101        C105   1.361       .  A
N101        H132   1.029       .  S
N102        C109   1.362       .  A
N102        C110   1.363       .  A
C103        C111   1.387       .  A
C103        C119   1.444       .  A
C104        C120   1.442       .  A
C104        C112   1.387       .  A
C105        C113   1.385       .  A
C105        C122   1.438       .  A
C106        C121   1.440       .  A
C106        C114   1.386       .  A
C107        C119   1.427       .  A
C107        C115   1.386       .  A
C108        C122   1.424       .  A
C108        C116   1.384       .  A
C109        C117   1.386   1_554  A
C109        C120   1.438       .  A
C110        C118   1.385   1_554  A
C110        C121   1.437       .  A
C111        C112   1.359       .  A
C111        H123   1.075       .  S
C112        H124   1.076       .  S
C113        C114   1.354       .  A
C113        H917   1.076       .  S
C114        H918   1.075       .  S
C115        C116   1.361       .  A
C115        H127   1.080       .  S
C116        H128   1.081       .  S
C117        C118   1.365       .  A
C117        H657   1.080       .  S
C118        H658   1.080       .  S
H125        C905   1.072       .  S
H126        C906   1.076       .  S
H129        C381   1.069       .  S
H130        C382   1.070       .  S
N133        C138   1.361       .  A
N133        C137   1.367       .  A
N133        H165   1.045       .  S
N134        C141   1.361       .  A
N134        C142   1.360       .  A
N135        C140   1.364       .  A
N135        C139   1.368       .  A
N135        H166   1.045       .  S
N136        C143   1.366       .  A
N136        C144   1.367       .  A
C137        C145   1.379       .  A
C137        C153   1.427       .  A
C138        C154   1.430       .  A
C138        C146   1.383       .  A
C139        C147   1.382       .  A
C139        C156   1.433       .  A
C140        C155   1.426       .  A
C140        C148   1.376       .  A
C141        C153   1.434       .  A
C141        C149   1.384       .  A
C142        C156   1.434       .  A
C142        C150   1.387       .  A
C143        C151   1.386       .  A
C143        C154   1.441       .  A
C144        C152   1.382       .  A
C144        C155   1.438       .  A
C145        C146   1.354       .  A
C145        H949   1.069   1_545  S
C146        H950   1.073   1_545  S
C147        C148   1.349       .  A
C147        H159   1.064       .  S
C148        H160   1.073       .  S
C149        C150   1.373       .  A
C149        H425   1.081       .  S
C150        H426   1.073       .  S
C151        C152   1.349       .  A
C151        H163   1.076       .  S
C152        H164   1.077       .  S
C153        C807   1.602   1_545  S
C154        C855   1.601   1_545  S
C156        C295   1.592       .  S
H157        C937   1.066       .  S
H158        C938   1.073       .  S
H161        C677   1.080       .  S
H162        C678   1.067       .  S
N167        C172   1.370       .  A
N167        C171   1.370       .  A
N167        H199   1.033       .  S
N168        C175   1.368       .  A
N168        C176   1.369       .  A
N169        C174   1.361       .  A
N169        C173   1.361       .  A
N169        H200   1.043       .  S
N170        C177   1.368       .  A
N170        C178   1.367       .  A
C171        C179   1.381   1_554  A
C171        C187   1.449       .  A
C172        C188   1.453       .  A
C172        C180   1.384   1_554  A
C173        C181   1.379       .  A
C173        C190   1.423       .  A
C174        C189   1.422       .  A
C174        C182   1.379       .  A
C175        C187   1.456       .  A
C175        C183   1.390       .  A
C176        C190   1.441       .  A
C176        C184   1.378       .  A
C177        C185   1.388       .  A
C177        C188   1.452       .  A
C178        C186   1.379       .  A
C178        C189   1.440       .  A
C179        C180   1.343       .  A
C179        H719   1.068       .  S
C180        H720   1.062       .  S
C181        C182   1.365       .  A
C181        H193   1.068       .  S
C182        H194   1.069       .  S
C183        C184   1.349       .  A
C183        H987   1.071       .  S
C184        H988   1.070       .  S
C185        C186   1.346       .  A
C185        H197   1.072       .  S
C186        H198   1.068       .  S
C187        C543   1.605       .  S
H191        C443   1.082       .  S
H192        C444   1.076       .  S
H195        C975   1.076       .  S
H196        C976   1.069       .  S
C201        C202   1.354   1_565  D
C201        H995   1.087       .  S
C202        C855   1.547   1_545  S
C202        H204   1.082       .  S
H203        C993   1.087       .  S
C205        C206   1.356       .  D
C205        H999   1.081       .  S
C206        C851   1.474       .  S
C206        H208   1.074       .  S
H207        C997   1.081       .  S
C209        C853   1.470       .  S
C209        C210   1.354       .  D
C209       H1003   1.081       .  S
C210        H212   1.087       .  S
H211       C1001   1.080       .  S
C213        C214   1.361   1_565  D
C213        H215   1.086       .  S
C214        C856   1.546       .  S
C214       H1008   1.084       .  S
H216       C1006   1.083       .  S
C217        C218   1.353       .  D
C217        H219   1.081       .  S
C218        H220   1.087       .  S
C221        C222   1.357       .  D
C221        H223   1.081       .  S
C222        H224   1.075       .  S
C225        C226   1.354       .  D
C225        H227   1.081       .  S
C226        H228   1.087       .  S
C229        C230   1.363       .  D
C229        H231   1.086       .  S
C230        H232   1.083       .  S
C233        C234   1.350       .  D
C233        H235   1.082       .  S
C234        C295   1.545       .  S
C234        H236   1.081       .  S
C237        C238   1.356       .  D
C237        H239   1.085       .  S
C238        H240   1.085       .  S
C241        C242   1.352       .  D
C241        H243   1.080       .  S
C242        C296   1.556       .  S
C242        H244   1.088       .  S
C245        C246   1.355       .  D
C245        H247   1.086       .  S
C246        H248   1.084       .  S
C249        C250   1.355   1_565  D
C249        H251   1.086       .  S
C250       C1335   1.543   1_544  S
C250       H1044   1.083       .  S
H252       C1042   1.084       .  S
C253        C254   1.353       .  D
C253        H255   1.087       .  S
C254        C806   1.466       .  S
C254       H1048   1.078       .  S
H256       C1046   1.079       .  S
C257        C258   1.355       .  D
C257       H1051   1.080       .  S
C258        C280   1.559       .  S
C258        H260   1.087       .  S
H259       C1049   1.079       .  S
C261        C808   1.549   1_554  S
C261        C262   1.359   1_545  D
C261        H263   1.084       .  S
C262        C805   1.469       .  S
C262       H1056   1.086       .  S
H264       C1054   1.086       .  S
O265       Cu273   2.014       .  S
O265        C275   1.277   1_545  A
O266       Cu273   2.018       .  S
O266       C1068   1.281       .  A
O267       Cu273   2.000       .  S
O267       C1069   1.274   1_545  A
O268       Cu273   2.006       .  S
O268        C278   1.279   1_545  A
O269       Cu274   2.007       .  S
O269       C1070   1.274       .  A
O270       Cu274   1.989       .  S
O270        C277   1.277       .  A
O271       Cu274   2.003       .  S
O271        C276   1.276       .  A
O272       Cu274   2.011       .  S
O272       C1067   1.279       .  A
Cu273     Cu1066   2.375   1_545  S
Cu274     Cu1065   2.380       .  S
C275       O1064   1.280       .  A
C275        C513   1.475       .  S
C276       O1058   1.277       .  A
C276        C521   1.462       .  S
C277       O1059   1.275       .  A
C277       C1318   1.458       .  S
C278       O1061   1.278       .  A
C278       C1310   1.478   1_565  S
C279       C1570   1.554       .  S
C279        C517   1.568       .  S
C279       C1209   1.594       .  S
C279        C715   1.608       .  S
C280       C1317   1.539       .  S
C280        C880   1.578       .  S
C280        C385   1.605       .  S
O281       Cu289   2.020       .  S
O281        C291   1.281       .  A
O282       Cu289   2.021       .  S
O282        C292   1.279       .  A
O283       Cu289   1.991       .  S
O283        C293   1.277       .  A
O284       Cu289   2.006       .  S
O284        C294   1.273       .  A
O285       Cu290   1.994       .  S
O285        C294   1.279       .  A
O286       Cu290   1.998       .  S
O286        C293   1.275       .  A
O287       Cu290   1.996       .  S
O287        C292   1.276       .  A
O288       Cu290   2.021       .  S
O288        C291   1.277       .  A
Cu289      Cu290   2.378       .  S
C291        C501   1.479       .  S
C292        C505   1.468       .  S
C293        C509   1.458       .  S
C294        C497   1.461       .  S
C295        C502   1.558       .  S
C295        C452   1.592       .  S
C296        C510   1.539       .  S
C296        C384   1.605       .  S
O297       Cu569   2.012       .  S
O297        C307   1.276       .  A
O298       Cu305   2.016   1_455  S
O298        C308   1.280       .  A
O299       Cu569   2.023   1_455  S
O299        C309   1.277       .  A
O300       Cu305   2.010       .  S
O300        C310   1.279       .  A
O301       Cu306   2.003       .  S
O301        C310   1.275       .  A
O302       Cu570   2.003       .  S
O302        C309   1.278       .  A
O303       Cu306   2.029   1_455  S
O303        C308   1.277       .  A
O304       Cu570   1.997   1_655  S
O304        C307   1.278       .  A
Cu305      Cu306   2.375       .  S
C307        C489   1.468       .  S
C308        C482   1.479       .  S
C309        C486   1.472       .  S
C310        C493   1.466       .  S
C311        C481   1.560       .  S
C311        C485   1.560       .  S
C311        C419   1.602       .  S
C311        C453   1.574       .  S
C312        C490   1.554       .  S
C312        C494   1.546       .  S
C312        C350   1.601       .  S
C312        C383   1.577       .  S
O313       Cu585   2.027   1_455  S
O313       C1115   1.277       .  A
O314       Cu321   2.006       .  S
O314       C1116   1.278       .  A
O315       Cu585   2.020       .  S
O315       C1117   1.277       .  A
O316       Cu321   2.012   1_455  S
O316       C1118   1.280       .  A
O317       Cu322   2.026       .  S
O317        C326   1.277   1_545  A
O318       Cu586   1.987       .  S
O318        C325   1.276       .  A
O319       Cu322   2.017   1_655  S
O319        C324   1.277   1_545  A
O320       Cu586   1.994   1_455  S
O320        C323   1.277       .  A
Cu321     Cu1114   2.376       .  S
Cu322     Cu1113   2.378   1_545  S
C323       O1105   1.275   1_545  A
C323       C1262   1.461       .  S
C324       O1106   1.278       .  A
C324        C477   1.468       .  S
C325       O1107   1.275   1_545  A
C325       C1265   1.456       .  S
C326       O1108   1.280       .  A
C326        C465   1.477       .  S
C327       C1258   1.559       .  S
C327        C469   1.562       .  S
C327       C1210   1.599       .  S
C327        C454   1.574       .  S
C328        C474   1.557       .  S
C328       C1270   1.546       .  S
C328       C1141   1.598       .  S
C328        C386   1.579       .  S
N329        C334   1.360       .  A
N329        C333   1.358       .  A
N329        H361   1.044       .  S
N330        C337   1.366       .  A
N330        C338   1.371       .  A
N331        C336   1.359       .  A
N331        C335   1.362       .  A
N331        H362   1.044       .  S
N332        C339   1.374       .  A
N332        C340   1.370       .  A
C333        C341   1.385       .  A
C333        C349   1.423       .  A
C334        C350   1.426       .  A
C334        C342   1.386       .  A
C335        C343   1.384       .  A
C335        C352   1.428       .  A
C336        C351   1.427       .  A
C336        C344   1.386       .  A
C337        C349   1.434       .  A
C337       C1137   1.372   1_545  A
C338        C352   1.435       .  A
C338       C1138   1.378   1_545  A
C339        C347   1.375       .  A
C339        C350   1.439       .  A
C340        C348   1.371       .  A
C340        C351   1.439       .  A
C341        C342   1.356       .  A
C341        H353   1.080       .  S
C342        H354   1.080       .  S
C343        C344   1.360       .  A
C343        H619   1.080       .  S
C344        H620   1.080       .  S
C345       C1129   1.377       .  A
C345        C346   1.339       .  A
C345        H357   1.066       .  S
C346       C1130   1.371       .  A
C346        H358   1.053       .  S
C347        C348   1.338       .  A
C347        H359   1.065       .  S
C348        H360   1.052       .  S
C349       C1120   1.588       .  S
C351        C560   1.597       .  S
C352       C1336   1.599   1_545  S
N363        C368   1.365       .  A
N363        C367   1.366       .  A
N363        H395   1.028       .  S
N364        C371   1.355       .  A
N364        C372   1.356       .  A
N365        C370   1.367       .  A
N365        C369   1.367       .  A
N365        H396   1.031       .  S
N366        C373   1.368       .  A
N366        C374   1.368       .  A
C367        C375   1.381       .  A
C367        C383   1.443       .  A
C368        C384   1.453       .  A
C368        C376   1.391       .  A
C369        C377   1.380       .  A
C369        C386   1.443       .  A
C370        C385   1.455       .  A
C370        C378   1.392       .  A
C371        C383   1.423       .  A
C371        C379   1.385       .  A
C372        C386   1.421       .  A
C372        C380   1.384       .  A
C373        C381   1.384       .  A
C373        C384   1.452       .  A
C374        C382   1.384       .  A
C374        C385   1.450       .  A
C375        C376   1.353       .  A
C375        H387   1.075       .  S
C376        H388   1.072       .  S
C377        C378   1.354       .  A
C377       H1181   1.076       .  S
C378       H1182   1.070       .  S
C379        C380   1.360       .  A
C379        H391   1.081       .  S
C380        H392   1.081       .  S
C381        C382   1.339       .  A
H389       C1169   1.071       .  S
H390       C1170   1.076       .  S
H393        C645   1.070       .  S
H394        C646   1.069       .  S
N397        C402   1.367       .  A
N397        C401   1.371       .  A
N397        H429   1.042       .  S
N398        C405   1.364       .  A
N398        C406   1.365       .  A
N399        C404   1.373       .  A
N399        C403   1.372       .  A
N399        H430   1.038       .  S
N400        C407   1.359       .  A
N400        C408   1.359       .  A
C401        C409   1.381   1_545  A
C401        C417   1.437       .  A
C402        C418   1.436       .  A
C402        C410   1.373   1_545  A
C403        C411   1.378       .  A
C403        C420   1.446       .  A
C404        C419   1.453       .  A
C404        C412   1.384       .  A
C405        C417   1.432       .  A
C405        C413   1.375       .  A
C406        C420   1.445       .  A
C406        C414   1.390       .  A
C407        C415   1.384       .  A
C407        C418   1.425       .  A
C408        C416   1.384       .  A
C408        C419   1.427       .  A
C409        C410   1.345       .  A
C409       H1213   1.067       .  S
C410       H1214   1.059       .  S
C411        C412   1.343       .  A
C411        H423   1.076       .  S
C412        H424   1.056       .  S
C413        C414   1.351       .  A
C413        H689   1.080       .  S
C414        H690   1.069       .  S
C415        C416   1.356       .  A
C415        H427   1.080       .  S
C416        H428   1.080       .  S
C417       C1071   1.606   1_545  S
C418       C1119   1.594       .  S
C420        C559   1.605       .  S
H421       C1201   1.078       .  S
H422       C1202   1.057       .  S
N431        C436   1.362       .  A
N431        C435   1.360       .  A
N431        H463   1.044       .  S
N432        C439   1.365       .  A
N432        C440   1.363       .  A
N433        C438   1.357       .  A
N433        C437   1.358       .  A
N433        H464   1.043       .  S
N434        C441   1.366       .  A
N434        C442   1.363       .  A
C435        C443   1.383       .  A
C435        C451   1.427       .  A
C436        C452   1.433       .  A
C436        C444   1.388       .  A
C437        C445   1.385       .  A
C437        C454   1.423       .  A
C438        C453   1.424       .  A
C438        C446   1.386       .  A
C439        C451   1.438       .  A
C439        C447   1.386       .  A
C440        C454   1.437       .  A
C440        C448   1.385       .  A
C441        C449   1.386       .  A
C441        C452   1.440       .  A
C442        C450   1.385       .  A
C442        C453   1.438       .  A
C443        C444   1.379       .  A
C445        C446   1.356       .  A
C445        H457   1.080       .  S
C446        H458   1.080       .  S
C447        C448   1.350       .  A
C447       H1251   1.076       .  S
C448       H1252   1.074       .  S
C449        C450   1.349       .  A
C449        H461   1.076       .  S
C450        H462   1.075       .  S
H455        C707   1.078       .  S
H456        C708   1.081       .  S
H459       C1239   1.077       .  S
H460       C1240   1.071       .  S
C465        C466   1.361   1_565  D
C465       H1259   1.086       .  S
C466       C1119   1.552       .  S
C466        H468   1.083       .  S
H467       C1257   1.086       .  S
C469        C470   1.358       .  D
C469       H1263   1.086       .  S
C470       C1115   1.473       .  S
C470        H472   1.080       .  S
H471       C1261   1.087       .  S
C473       C1117   1.473       .  S
C473        C474   1.354       .  D
C473       H1267   1.079       .  S
C474        H476   1.086       .  S
H475       C1265   1.080       .  S
C477        C478   1.357   1_565  D
C477        H479   1.086       .  S
C478       C1120   1.546       .  S
C478       H1272   1.084       .  S
H480       C1270   1.083       .  S
C481        C482   1.363       .  D
C481        H483   1.083       .  S
C482        H484   1.086       .  S
C485        C486   1.357       .  D
C485        H487   1.087       .  S
C486        H488   1.080       .  S
C489        C490   1.352       .  D
C489        H491   1.078       .  S
C490        H492   1.086       .  S
C493        C494   1.357       .  D
C493        H495   1.086       .  S
C494        H496   1.083       .  S
C497        C498   1.356       .  D
C497        H499   1.067       .  S
C498        C559   1.562       .  S
C498        H500   1.083       .  S
C501        C502   1.358       .  D
C501        H503   1.087       .  S
C502        H504   1.084       .  S
C505        C506   1.352       .  D
C505        H507   1.081       .  S
C506        C560   1.562       .  S
C506        H508   1.086       .  S
C509        C510   1.354       .  D
C509        H511   1.086       .  S
C510        H512   1.084       .  S
C513        C514   1.357   1_565  D
C513        H515   1.086       .  S
C514        C807   1.548   1_545  S
C514       H1308   1.083       .  S
H516       C1306   1.083       .  S
C517        C518   1.362       .  D
C517        H519   1.077       .  S
C518       C1070   1.466       .  S
C518       H1312   1.079       .  S
H520       C1310   1.079       .  S
C521        C522   1.353       .  D
C521       H1315   1.080       .  S
C522        C544   1.559       .  S
C522        H524   1.087       .  S
H523       C1313   1.079       .  S
C525       C1072   1.546   1_545  S
C525        C526   1.356   1_545  D
C525        H527   1.083       .  S
C526       C1069   1.465       .  S
C526       H1320   1.086       .  S
H528       C1318   1.086       .  S
O529       Cu537   2.003       .  S
O529        C539   1.276   1_545  A
O530       Cu537   2.008       .  S
O530       C1332   1.279       .  A
O531       Cu537   2.001       .  S
O531       C1333   1.275   1_545  A
O532       Cu537   2.008       .  S
O532        C542   1.279       .  A
O533       Cu538   1.994       .  S
O533       C1334   1.274       .  A
O534       Cu538   2.002       .  S
O534        C541   1.279       .  A
O535       Cu538   2.002       .  S
O535        C540   1.275       .  A
O536       Cu538   2.003       .  S
O536       C1331   1.278       .  A
Cu537     Cu1330   2.377   1_545  S
Cu538     Cu1329   2.380       .  S
C539       O1328   1.277       .  A
C539        C777   1.465       .  S
C540       O1322   1.278       .  A
C540        C785   1.461       .  S
C541       O1323   1.273       .  A
C541       C1582   1.458       .  S
C542       O1325   1.278   1_545  A
C542       C1574   1.477       .  S
C543       C1042   1.537       .  S
C543        C781   1.561   1_554  S
C543       C1473   1.584   1_554  S
C544       C1581   1.539       .  S
C544       C1144   1.590       .  S
C544        C649   1.609       .  S
O545       Cu553   2.029       .  S
O545        C555   1.280       .  A
O546       Cu553   2.025       .  S
O546        C556   1.279       .  A
O547       Cu553   1.990       .  S
O547        C557   1.276       .  A
O548       Cu553   1.982       .  S
O548        C558   1.272       .  A
O549       Cu554   2.036       .  S
O549        C558   1.282       .  A
O550       Cu554   2.024       .  S
O550        C557   1.278       .  A
O551       Cu554   1.976       .  S
O551        C556   1.273       .  A
O552       Cu554   2.023       .  S
O552        C555   1.277       .  A
Cu553      Cu554   2.378       .  S
C555        C765   1.480       .  S
C556        C769   1.461       .  S
C557        C773   1.467       .  S
C558        C761   1.469       .  S
C559        C766   1.556       .  S
C559        C716   1.603       .  S
C560        C774   1.548       .  S
C560        C648   1.613       .  S
O561        C571   1.278       .  A
O562       Cu569   2.011   1_455  S
O562        C572   1.279       .  A
O563        C573   1.278       .  A
O564       Cu569   1.997       .  S
O564        C574   1.278       .  A
O565       Cu570   1.998   1_655  S
O565        C574   1.274       .  A
O566        C573   1.276       .  A
O567       Cu570   2.004       .  S
O567        C572   1.276       .  A
O568        C571   1.279       .  A
Cu569      Cu570   2.379   1_655  S
C571        C753   1.479       .  S
C572        C746   1.469       .  S
C573        C750   1.468       .  S
C574        C757   1.458       .  S
C575        C745   1.547       .  S
C575        C749   1.552       .  S
C575        C683   1.604       .  S
C575        C717   1.578       .  S
C576        C754   1.571       .  S
C576        C758   1.540       .  S
C576        C614   1.581       .  S
C576        C647   1.606       .  S
O577       C1379   1.278       .  A
O578       Cu585   2.003       .  S
O578       C1380   1.279       .  A
O579       C1381   1.279       .  A
O580       Cu585   2.018   1_455  S
O580       C1382   1.280       .  A
O581       Cu586   2.003   1_455  S
O581        C590   1.275   1_545  A
O582        C589   1.280       .  A
O583       Cu586   2.010       .  S
O583        C588   1.276   1_545  A
O584        C587   1.275       .  A
Cu585     Cu1378   2.377       .  S
Cu586     Cu1377   2.380   1_545  S
C587       O1369   1.277   1_545  A
C587       C1526   1.457       .  S
C588       O1370   1.279       .  A
C588        C741   1.470       .  S
C589       O1371   1.274   1_545  A
C589       C1529   1.465       .  S
C590       O1372   1.279       .  A
C590        C729   1.464       .  S
C591       C1522   1.552       .  S
C591        C733   1.556       .  S
C591       C1474   1.600       .  S
C591        C718   1.575       .  S
C592        C738   1.572       .  S
C592       C1534   1.546       .  S
C592       C1405   1.586       .  S
C592        C650   1.605       .  S
N593        C598   1.356       .  A
N593        C597   1.355       .  A
N593        H625   1.042       .  S
N594        C601   1.366       .  A
N594        C602   1.371       .  A
N595        C600   1.360       .  A
N595        C599   1.361       .  A
N595        H626   1.044       .  S
N596        C603   1.365       .  A
N596        C604   1.370       .  A
C597        C605   1.387       .  A
C597        C613   1.420       .  A
C598        C614   1.416       .  A
C598        C606   1.384       .  A
C599        C607   1.388       .  A
C599        C616   1.433       .  A
C600        C615   1.430       .  A
C600        C608   1.385       .  A
C601        C613   1.434       .  A
C601       C1401   1.371   1_545  A
C602        C616   1.437       .  A
C602       C1402   1.380   1_545  A
C603        C611   1.366       .  A
C603        C614   1.431       .  A
C604        C612   1.379       .  A
C604        C615   1.436       .  A
C605        C606   1.355       .  A
C605        H617   1.080       .  S
C606        H618   1.081       .  S
C607        C608   1.371       .  A
C609       C1393   1.367       .  A
C609        C610   1.337       .  A
C609        H621   1.052       .  S
C610       C1394   1.380       .  A
C610        H622   1.065       .  S
C611        C612   1.335       .  A
C611        H623   1.051       .  S
C612        H624   1.063       .  S
C613       C1384   1.582       .  S
C616        C808   1.603       .  S
N627        C632   1.373       .  A
N627        C631   1.373       .  A
N627        H659   1.029       .  S
N628        C635   1.364       .  A
N628        C636   1.364       .  A
N629        C634   1.372       .  A
N629        C633   1.373       .  A
N629        H660   1.029       .  S
N630        C637   1.368       .  A
N630        C638   1.368       .  A
C631        C639   1.388       .  A
C631        C647   1.462       .  A
C632        C648   1.458       .  A
C632        C640   1.385       .  A
C633        C641   1.386       .  A
C633        C650   1.461       .  A
C634        C649   1.460       .  A
C634        C642   1.387       .  A
C635        C647   1.440       .  A
C635        C643   1.382       .  A
C636        C650   1.438       .  A
C636        C644   1.381       .  A
C637        C645   1.383       .  A
C637        C648   1.449       .  A
C638        C646   1.383       .  A
C638        C649   1.448       .  A
C639        C640   1.354       .  A
C639        H651   1.071       .  S
C640        H652   1.074       .  S
C641        C642   1.354       .  A
C641       H1445   1.073       .  S
C642       H1446   1.073       .  S
C643        C644   1.329       .  A
C643        H655   1.069       .  S
C644        H656   1.069       .  S
C645        C646   1.336       .  A
H653       C1433   1.070       .  S
H654       C1434   1.076       .  S
N661        C666   1.365       .  A
N661        C665   1.372       .  A
N661        H693   1.042       .  S
N662        C669   1.361       .  A
N662        C670   1.357       .  A
N663        C668   1.372       .  A
N663        C667   1.370       .  A
N663        H694   1.040       .  S
N664        C671   1.358       .  A
N664        C672   1.361       .  A
C665        C673   1.376   1_545  A
C665        C681   1.432       .  A
C666        C682   1.436       .  A
C666        C674   1.374   1_545  A
C667        C675   1.379       .  A
C667        C684   1.444       .  A
C668        C683   1.442       .  A
C668        C676   1.375       .  A
C669        C681   1.421       .  A
C669        C677   1.378       .  A
C670        C684   1.427       .  A
C670        C678   1.385       .  A
C671        C679   1.386       .  A
C671        C682   1.428       .  A
C672        C680   1.384       .  A
C672        C683   1.428       .  A
C673        C674   1.341       .  A
C673       H1477   1.067       .  S
C674       H1478   1.055       .  S
C675        C676   1.340       .  A
C675        H687   1.067       .  S
C676        H688   1.063       .  S
C677        C678   1.352       .  A
C679        C680   1.361       .  A
C679        H691   1.081       .  S
C680        H692   1.081       .  S
C681       C1335   1.599   1_545  S
C682       C1383   1.591       .  S
H685       C1465   1.063       .  S
H686       C1466   1.068       .  S
N695        C700   1.367       .  A
N695        C699   1.367       .  A
N695        H727   1.044       .  S
N696        C703   1.367       .  A
N696        C704   1.367       .  A
N697        C702   1.355       .  A
N697        C701   1.355       .  A
N697        H728   1.044       .  S
N698        C705   1.367       .  A
N698        C706   1.366       .  A
C699        C707   1.388       .  A
C699        C715   1.442       .  A
C700        C716   1.436       .  A
C700        C708   1.383       .  A
C701        C709   1.384       .  A
C701        C718   1.417       .  A
C702        C717   1.424       .  A
C702        C710   1.389       .  A
C703        C715   1.444       .  A
C703        C711   1.390       .  A
C704        C718   1.437       .  A
C704        C712   1.380       .  A
C705        C713   1.388       .  A
C705        C716   1.441       .  A
C706        C714   1.380       .  A
C706        C717   1.436       .  A
C707        C708   1.371       .  A
C709        C710   1.364       .  A
C709        H721   1.081       .  S
C710        H722   1.080       .  S
C711        C712   1.350       .  A
C711       H1515   1.071       .  S
C712       H1516   1.077       .  S
C713        C714   1.349       .  A
C713        H725   1.068       .  S
C714        H726   1.076       .  S
H723       C1503   1.074       .  S
H724       C1504   1.073       .  S
C729        C730   1.357   1_565  D
C729       H1523   1.086       .  S
C730       C1383   1.542       .  S
C730        H732   1.084       .  S
H731       C1521   1.086       .  S
C733        C734   1.354       .  D
C733       H1527   1.087       .  S
C734       C1379   1.473       .  S
C734        H736   1.080       .  S
H735       C1525   1.087       .  S
C737       C1381   1.481       .  S
C737        C738   1.360       .  D
C737       H1531   1.081       .  S
C738        H740   1.087       .  S
H739       C1529   1.080       .  S
C741        C742   1.358   1_565  D
C741        H743   1.086       .  S
C742       C1384   1.545       .  S
C742       H1536   1.084       .  S
H744       C1534   1.084       .  S
C745        C746   1.356       .  D
C745        H747   1.083       .  S
C746        H748   1.086       .  S
C749        C750   1.352       .  D
C749        H751   1.087       .  S
C750        H752   1.080       .  S
C753        C754   1.361       .  D
C753        H755   1.081       .  S
C754        H756   1.087       .  S
C757        C758   1.355       .  D
C757        H759   1.086       .  S
C758        H760   1.084       .  S
C761        C762   1.348       .  D
C761        H763   1.083       .  S
C762        H764   1.082       .  S
C765        C766   1.354       .  D
C765        H767   1.081       .  S
C766        H768   1.088       .  S
C769        C770   1.349       .  D
C769        H771   1.081       .  S
C770        H772   1.087       .  S
C773        C774   1.356       .  D
C773        H775   1.086       .  S
C774        H776   1.084       .  S
C777        C778   1.352   1_565  D
C777        H779   1.086       .  S
C778       C1071   1.546   1_545  S
C778       H1572   1.083       .  S
H780       C1570   1.076       .  S
C781        C782   1.354       .  D
C781        H783   1.087       .  S
C782       C1334   1.458       .  S
C782       H1576   1.080       .  S
H784       C1574   1.079       .  S
C785        C786   1.352       .  D
C785       H1579   1.080       .  S
C786        H788   1.087       .  S
H787       C1577   1.079       .  S
C789       C1336   1.544   1_545  S
C789        C790   1.354   1_545  D
C789        H791   1.083       .  S
C790       C1333   1.465       .  S
C790       H1584   1.086       .  S
H792       C1582   1.086       .  S
O793       Cu801   1.986       .  S
O793        C803   1.274       .  A
O794       Cu801   1.991       .  S
O795       Cu801   2.018       .  S
O796       Cu801   2.002       .  S
O796        C806   1.279       .  A
O797       Cu802   2.036       .  S
O798       Cu802   2.012       .  S
O798        C805   1.280       .  A
O799       Cu802   2.032       .  S
O799        C804   1.278   1_565  A
O800       Cu802   2.005       .  S
C803       C1041   1.452       .  S
C804       C1049   1.479       .  S
C807       C1045   1.558       .  S
C807       C1243   1.586       .  S
C808       C1578   1.554   1_545  S
C808        C913   1.584   1_546  S
O809       Cu817   2.017       .  S
O809        C819   1.280       .  A
O810       Cu817   2.032       .  S
O810        C820   1.279       .  A
O811       Cu817   1.991       .  S
O811        C821   1.276       .  A
O812       Cu817   2.015       .  S
O812        C822   1.275       .  A
O813       Cu818   2.040       .  S
O813        C822   1.283       .  A
O814       Cu818   2.028       .  S
O814        C821   1.279       .  A
O815       Cu818   1.994       .  S
O815        C820   1.276       .  A
O816       Cu818   2.016       .  S
O816        C819   1.277       .  A
Cu817      Cu818   2.374       .  S
C819       C1029   1.477       .  S
C820       C1033   1.472       .  S
C821       C1037   1.468       .  S
C822       C1025   1.480       .  S
C823       C1554   1.553       .  S
C823       C1030   1.558   1_556  S
C823       C1476   1.594       .  S
C823        C980   1.582   1_556  S
C824       C1562   1.553       .  S
C824       C1038   1.548   1_556  S
C824       C1407   1.602       .  S
C824        C912   1.587   1_556  S
O825      Cu1097   2.010       .  S
O825        C835   1.277       .  A
O826       Cu833   2.018   1_554  S
O826        C836   1.278       .  A
O827      Cu1097   2.004   1_455  S
O827        C837   1.274       .  A
O828       Cu833   2.013   1_654  S
O828        C838   1.280       .  A
O829       Cu834   2.004   1_655  S
O829        C838   1.274       .  A
O830      Cu1098   1.995       .  S
O830        C837   1.279       .  A
O831       Cu834   2.029       .  S
O831        C836   1.280       .  A
O832      Cu1098   1.979   1_655  S
O832        C835   1.274       .  A
Cu833      O1353   2.004   1_455  S
Cu833      O1355   2.013       .  S
Cu833      Cu834   2.378   1_556  S
Cu834      O1358   1.984   1_554  S
Cu834      O1360   2.006   1_454  S
C835       C1017   1.455       .  S
C836       C1010   1.480       .  S
C837       C1014   1.461       .  S
C838       C1021   1.466       .  S
C839       C1009   1.548       .  S
C839       C1013   1.547       .  S
C839        C947   1.605       .  S
C839        C981   1.584       .  S
C840       C1018   1.556       .  S
C840       C1022   1.542       .  S
C840        C878   1.584       .  S
C840        C911   1.605       .  S
O841      Cu1113   2.001       .  S
O842       Cu849   2.015   1_654  S
O843      Cu1113   2.007   1_655  S
O844       Cu849   2.017   1_554  S
O845       Cu850   2.013       .  S
O845        C854   1.278       .  A
O846      Cu1114   2.002       .  S
O846        C853   1.277       .  A
O847       Cu850   2.011   1_655  S
O847        C852   1.275       .  A
O848      Cu1114   2.006   1_455  S
O848        C851   1.280       .  A
Cu849      O1369   2.010       .  S
Cu849      O1371   2.004   1_455  S
Cu850      O1374   2.015   1_454  S
Cu850      O1376   2.001   1_554  S
C852       C1005   1.473       .  S
C854        C993   1.477       .  S
C855        C997   1.547       .  S
C855        C982   1.584       .  S
C856       C1002   1.554   1_545  S
C856        C914   1.603   1_545  S
N857        C862   1.356       .  A
N857        C861   1.361       .  A
N857        H889   1.044       .  S
N858        C865   1.371       .  A
N858        C866   1.363       .  A
N859        C864   1.359       .  A
N859        C863   1.353       .  A
N859        H890   1.044       .  S
N860        C867   1.363       .  A
N860        C868   1.372       .  A
C861        C869   1.384       .  A
C861        C877   1.425       .  A
C862        C878   1.425       .  A
C862        C870   1.387       .  A
C863        C871   1.387       .  A
C863        C880   1.420       .  A
C864        C879   1.421       .  A
C864        C872   1.385       .  A
C865        C877   1.436       .  A
C866        C880   1.430       .  A
C867        C875   1.372       .  A
C867        C878   1.433       .  A
C868        C876   1.375       .  A
C868        C879   1.430       .  A
C869        C870   1.366       .  A
C869        H881   1.081       .  S
C870        H882   1.081       .  S
C871        C872   1.360       .  A
C871       H1147   1.080       .  S
C872       H1148   1.080       .  S
C873        C874   1.334       .  A
C873        H885   1.055       .  S
C874        H886   1.064       .  S
C875        C876   1.335       .  A
C875        H887   1.054       .  S
C876        H888   1.066       .  S
C879       C1088   1.593       .  S
H883       C1399   1.081       .  S
H884       C1400   1.081       .  S
N891        C896   1.367       .  A
N891        C895   1.366       .  A
N891        H923   1.031       .  S
N892        C899   1.368       .  A
N892        C900   1.369       .  A
N893        C898   1.365       .  A
N893        C897   1.365       .  A
N893        H924   1.029       .  S
N894        C901   1.359       .  A
N894        C902   1.359       .  A
C895        C903   1.393       .  A
C895        C911   1.456       .  A
C896        C912   1.442       .  A
C896        C904   1.380       .  A
C897        C905   1.392   1_565  A
C897        C914   1.452       .  A
C898        C913   1.442       .  A
C898        C906   1.382   1_565  A
C899        C911   1.452       .  A
C899        C907   1.384       .  A
C900        C914   1.452       .  A
C900        C908   1.383       .  A
C901        C909   1.385   1_554  A
C901        C912   1.431       .  A
C902        C910   1.385   1_554  A
C902        C913   1.430       .  A
C903        C904   1.354       .  A
C903        H915   1.070       .  S
C904        H916   1.076       .  S
C905        C906   1.353       .  A
C907        C908   1.339       .  A
C907        H919   1.069       .  S
C908        H920   1.070       .  S
C909        C910   1.369       .  A
C909       H1449   1.081       .  S
C910       H1450   1.081       .  S
H921       C1173   1.081       .  S
H922       C1174   1.081       .  S
N925        C930   1.365       .  A
N925        C929   1.368       .  A
N925        H957   1.044       .  S
N926        C933   1.359       .  A
N926        C934   1.362       .  A
N927        C932   1.363       .  A
N927        C931   1.368       .  A
N927        H958   1.045       .  S
N928        C935   1.368       .  A
N928        C936   1.367       .  A
C929        C937   1.382       .  A
C929        C945   1.434       .  A
C930        C946   1.431       .  A
C930        C938   1.378       .  A
C931        C939   1.380       .  A
C931        C948   1.431       .  A
C932        C947   1.429       .  A
C932        C940   1.380       .  A
C933        C945   1.437       .  A
C933        C941   1.389       .  A
C934        C948   1.429       .  A
C934        C942   1.383       .  A
C935        C943   1.382       .  A
C935        C946   1.439       .  A
C936        C944   1.386       .  A
C936        C947   1.442       .  A
C937        C938   1.352       .  A
C939        C940   1.353       .  A
C939        H951   1.068       .  S
C940        H952   1.073       .  S
C941        C942   1.371       .  A
C941       H1217   1.080       .  S
C942       H1218   1.075       .  S
C943        C944   1.349       .  A
C943        H955   1.077       .  S
C944        H956   1.076       .  S
C948       C1087   1.595       .  S
H953       C1469   1.080       .  S
H954       C1470   1.072       .  S
N959        C964   1.358       .  A
N959        C963   1.357       .  A
N959        H991   1.044       .  S
N960        C967   1.365       .  A
N960        C968   1.365       .  A
N961        C966   1.361       .  A
N961        C965   1.361       .  A
N961        H992   1.044       .  S
N962        C969   1.365       .  A
N962        C970   1.365       .  A
C963        C971   1.381   1_554  A
C963        C979   1.418       .  A
C964        C980   1.425       .  A
C964        C972   1.386   1_554  A
C965        C973   1.381       .  A
C965        C982   1.424       .  A
C966        C981   1.425       .  A
C966        C974   1.381       .  A
C967        C979   1.437       .  A
C967        C975   1.383   1_565  A
C968        C982   1.436       .  A
C968        C976   1.384   1_565  A
C969        C977   1.383       .  A
C969        C980   1.438       .  A
C970        C978   1.383       .  A
C970        C981   1.435       .  A
C971        C972   1.363       .  A
C971       H1511   1.081       .  S
C972       H1512   1.074       .  S
C973        C974   1.370       .  A
C973        H985   1.072       .  S
C974        H986   1.072       .  S
C975        C976   1.351       .  A
C977        C978   1.348       .  A
C977        H989   1.075       .  S
C978        H990   1.069       .  S
C979       C1335   1.577   1_554  S
H983       C1235   1.082       .  S
H984       C1236   1.078       .  S
C993        C994   1.355       .  D
C994        H996   1.080       .  S
C997        C998   1.354   1_565  D
C998       H1000   1.072       .  S
C1001      C1002   1.353   1_545  D
C1002      H1004   1.088       .  S
C1005      C1006   1.360       .  D
C1005      H1007   1.086       .  S
C1009      C1010   1.354       .  D
C1009      H1011   1.083       .  S
C1010      H1012   1.087       .  S
C1013      C1014   1.351       .  D
C1013      H1015   1.080       .  S
C1014      H1016   1.070       .  S
C1017      C1018   1.353       .  D
C1017      H1019   1.080       .  S
C1018      H1020   1.088       .  S
C1021      C1022   1.360       .  D
C1021      H1023   1.086       .  S
C1022      H1024   1.084       .  S
C1025      C1026   1.356       .  D
C1025      H1027   1.082       .  S
C1026      C1087   1.554       .  S
C1026      H1028   1.080       .  S
C1029      C1030   1.358       .  D
C1029      H1031   1.087       .  S
C1030      H1032   1.083       .  S
C1033      C1034   1.353       .  D
C1033      H1035   1.080       .  S
C1034      C1088   1.558       .  S
C1034      H1036   1.086       .  S
C1037      C1038   1.354       .  D
C1037      H1039   1.086       .  S
C1038      H1040   1.084       .  S
C1041      C1042   1.353       .  D
C1041      H1043   1.086       .  S
C1045      C1046   1.356   1_565  D
C1045      H1047   1.087       .  S
C1049      C1050   1.356   1_545  D
C1050      C1072   1.561       .  S
C1050      H1052   1.086       .  S
C1053      C1054   1.358       .  D
C1053      H1055   1.084       .  S
O1057     Cu1065   2.007       .  S
O1057      C1067   1.276       .  A
O1058     Cu1065   1.996       .  S
O1059     Cu1065   2.007       .  S
O1060     Cu1065   2.007       .  S
O1060      C1070   1.280       .  A
O1061     Cu1066   2.034       .  S
O1062     Cu1066   2.007       .  S
O1062      C1069   1.279       .  A
O1063     Cu1066   2.038       .  S
O1063      C1068   1.279   1_565  A
O1064     Cu1066   2.019       .  S
C1067      C1305   1.470       .  S
C1068      C1313   1.486       .  S
C1071      C1309   1.561       .  S
C1071      C1507   1.576       .  S
C1072      C1177   1.584       .  S
O1073     Cu1081   2.030       .  S
O1073      C1083   1.282       .  A
O1074     Cu1081   2.040       .  S
O1074      C1084   1.280       .  A
O1075     Cu1081   1.980       .  S
O1075      C1085   1.274       .  A
O1076     Cu1081   2.006       .  S
O1076      C1086   1.274       .  A
O1077     Cu1082   2.044       .  S
O1077      C1086   1.284       .  A
O1078     Cu1082   2.028       .  S
O1078      C1085   1.279       .  A
O1079     Cu1082   2.003       .  S
O1079      C1084   1.277       .  A
O1080     Cu1082   2.029       .  S
O1080      C1083   1.278       .  A
Cu1081    Cu1082   2.374       .  S
C1083      C1293   1.487       .  S
C1084      C1297   1.478       .  S
C1085      C1301   1.464       .  S
C1086      C1289   1.479       .  S
C1087      C1294   1.564       .  S
C1087      C1244   1.591       .  S
C1088      C1302   1.546       .  S
C1088      C1176   1.583       .  S
O1089     Cu1361   1.996       .  S
O1089      C1099   1.275       .  A
O1090     Cu1097   2.016   1_455  S
O1090      C1100   1.281       .  A
O1091     Cu1361   2.003   1_455  S
O1091      C1101   1.274       .  A
O1092     Cu1097   2.006       .  S
O1092      C1102   1.279       .  A
O1093     Cu1098   2.018   1_655  S
O1093      C1102   1.277       .  A
O1094     Cu1362   1.997   1_455  S
O1094      C1101   1.278       .  A
O1095     Cu1098   2.019       .  S
O1095      C1100   1.276       .  A
O1096     Cu1362   1.987       .  S
O1096      C1099   1.276       .  A
Cu1097    Cu1098   2.378   1_655  S
C1099      C1281   1.454       .  S
C1100      C1274   1.475       .  S
C1101      C1278   1.459       .  S
C1102      C1285   1.470       .  S
C1103      C1273   1.550       .  S
C1103      C1277   1.560       .  S
C1103      C1211   1.589       .  S
C1103      C1245   1.601       .  S
C1104      C1282   1.555       .  S
C1104      C1286   1.548       .  S
C1104      C1142   1.589       .  S
C1104      C1175   1.605       .  S
O1105     Cu1377   2.008   1_455  S
O1106     Cu1113   2.002   1_655  S
O1107     Cu1377   2.001       .  S
O1108     Cu1113   2.014       .  S
O1109     Cu1114   2.029   1_455  S
O1109      C1118   1.277       .  A
O1110     Cu1378   2.004       .  S
O1110      C1117   1.279       .  A
O1111     Cu1114   2.003       .  S
O1111      C1116   1.276       .  A
O1112     Cu1378   2.006   1_455  S
O1112      C1115   1.278       .  A
C1116      C1269   1.465       .  S
C1118      C1257   1.478       .  S
C1119      C1261   1.558   1_545  S
C1119      C1246   1.602   1_545  S
C1120      C1266   1.559   1_545  S
C1120      C1178   1.604   1_545  S
N1121      C1126   1.358       .  A
N1121      C1125   1.361       .  A
N1121      H1153   1.044       .  S
N1122      C1129   1.372       .  A
N1122      C1130   1.367       .  A
N1123      C1128   1.361       .  A
N1123      C1127   1.357       .  A
N1123      H1154   1.044       .  S
N1124      C1131   1.365       .  A
N1124      C1132   1.371       .  A
C1125      C1133   1.386       .  A
C1125      C1141   1.426       .  A
C1126      C1142   1.424       .  A
C1126      C1134   1.385       .  A
C1127      C1135   1.388       .  A
C1127      C1144   1.425       .  A
C1128      C1143   1.425       .  A
C1128      C1136   1.385       .  A
C1129      C1141   1.437       .  A
C1130      C1144   1.436       .  A
C1131      C1139   1.373       .  A
C1131      C1142   1.434       .  A
C1132      C1140   1.377       .  A
C1132      C1143   1.433       .  A
C1133      C1134   1.358       .  A
C1133      H1145   1.080       .  S
C1134      H1146   1.080       .  S
C1135      C1136   1.362       .  A
C1135      H1411   1.080       .  S
C1136      H1412   1.081       .  S
C1137      C1138   1.338       .  A
C1137      H1149   1.057       .  S
C1138      H1150   1.066       .  S
C1139      C1140   1.338       .  A
C1139      H1151   1.056       .  S
C1140      H1152   1.067       .  S
C1143      C1352   1.596       .  S
N1155      C1160   1.367       .  A
N1155      C1159   1.366       .  A
N1155      H1187   1.028       .  S
N1156      C1163   1.369       .  A
N1156      C1164   1.369       .  A
N1157      C1162   1.368       .  A
N1157      C1161   1.367       .  A
N1157      H1188   1.030       .  S
N1158      C1165   1.357       .  A
N1158      C1166   1.357       .  A
C1159      C1167   1.392       .  A
C1159      C1175   1.456       .  A
C1160      C1176   1.445       .  A
C1160      C1168   1.381       .  A
C1161      C1169   1.392   1_565  A
C1161      C1178   1.457       .  A
C1162      C1177   1.444       .  A
C1162      C1170   1.380   1_565  A
C1163      C1175   1.453       .  A
C1163      C1171   1.384       .  A
C1164      C1178   1.452       .  A
C1164      C1172   1.384       .  A
C1165      C1173   1.385       .  A
C1165      C1176   1.426       .  A
C1166      C1174   1.384       .  A
C1166      C1177   1.425       .  A
C1167      C1168   1.354       .  A
C1167      H1179   1.072       .  S
C1168      H1180   1.076       .  S
C1169      C1170   1.354       .  A
C1171      C1172   1.342       .  A
C1171      H1183   1.070       .  S
C1172      H1184   1.069       .  S
C1173      C1174   1.363       .  A
H1185      C1437   1.081       .  S
H1186      C1438   1.081       .  S
N1189      C1194   1.371       .  A
N1189      C1193   1.368       .  A
N1189      H1221   1.040       .  S
N1190      C1197   1.358       .  A
N1190      C1198   1.362       .  A
N1191      C1196   1.365       .  A
N1191      C1195   1.372       .  A
N1191      H1222   1.043       .  S
N1192      C1199   1.360       .  A
N1192      C1200   1.358       .  A
C1193      C1201   1.377       .  A
C1193      C1209   1.436       .  A
C1194      C1210   1.450       .  A
C1194      C1202   1.386       .  A
C1195      C1203   1.381       .  A
C1195      C1212   1.436       .  A
C1196      C1211   1.435       .  A
C1196      C1204   1.373       .  A
C1197      C1209   1.431       .  A
C1197      C1205   1.386       .  A
C1198      C1212   1.422       .  A
C1198      C1206   1.380       .  A
C1199      C1207   1.383       .  A
C1199      C1210   1.426       .  A
C1200      C1208   1.385       .  A
C1200      C1211   1.425       .  A
C1201      C1202   1.344       .  A
C1203      C1204   1.344       .  A
C1203      H1215   1.068       .  S
C1204      H1216   1.058       .  S
C1205      C1206   1.363       .  A
C1205      H1481   1.078       .  S
C1206      H1482   1.075       .  S
C1207      C1208   1.356       .  A
C1207      H1219   1.081       .  S
C1208      H1220   1.080       .  S
C1212      C1351   1.591       .  S
N1223      C1228   1.359       .  A
N1223      C1227   1.358       .  A
N1223      H1255   1.044       .  S
N1224      C1231   1.366       .  A
N1224      C1232   1.365       .  A
N1225      C1230   1.370       .  A
N1225      C1229   1.371       .  A
N1225      H1256   1.034       .  S
N1226      C1233   1.367       .  A
N1226      C1234   1.365       .  A
C1227      C1235   1.383       .  A
C1227      C1243   1.421       .  A
C1228      C1244   1.426       .  A
C1228      C1236   1.387       .  A
C1229      C1237   1.385       .  A
C1229      C1246   1.453       .  A
C1230      C1245   1.452       .  A
C1230      C1238   1.385       .  A
C1231      C1243   1.439       .  A
C1231      C1239   1.379   1_565  A
C1232      C1246   1.452       .  A
C1232      C1240   1.391   1_565  A
C1233      C1241   1.380       .  A
C1233      C1244   1.441       .  A
C1234      C1242   1.392       .  A
C1234      C1245   1.453       .  A
C1235      C1236   1.380       .  A
C1237      C1238   1.350       .  A
C1237      H1249   1.070       .  S
C1238      H1250   1.069       .  S
C1239      C1240   1.349       .  A
C1241      C1242   1.347       .  A
C1241      H1253   1.077       .  S
C1242      H1254   1.070       .  S
H1247      C1499   1.081       .  S
H1248      C1500   1.074       .  S
C1257      C1258   1.362       .  D
C1258      H1260   1.083       .  S
C1261      C1262   1.357   1_565  D
C1262      H1264   1.080       .  S
C1265      C1266   1.355   1_545  D
C1266      H1268   1.087       .  S
C1269      C1270   1.354       .  D
C1269      H1271   1.086       .  S
C1273      C1274   1.361       .  D
C1273      H1275   1.084       .  S
C1274      H1276   1.086       .  S
C1277      C1278   1.359       .  D
C1277      H1279   1.087       .  S
C1278      H1280   1.079       .  S
C1281      C1282   1.353       .  D
C1281      H1283   1.080       .  S
C1282      H1284   1.087       .  S
C1285      C1286   1.359       .  D
C1285      H1287   1.086       .  S
C1286      H1288   1.084       .  S
C1289      C1290   1.353       .  D
C1289      H1291   1.083       .  S
C1290      C1351   1.555       .  S
C1290      H1292   1.082       .  S
C1293      C1294   1.362       .  D
C1293      H1295   1.087       .  S
C1294      H1296   1.083       .  S
C1297      C1298   1.356       .  D
C1297      H1299   1.080       .  S
C1298      C1352   1.562       .  S
C1298      H1300   1.086       .  S
C1301      C1302   1.351       .  D
C1301      H1303   1.086       .  S
C1302      H1304   1.084       .  S
C1305      C1306   1.355       .  D
C1305      H1307   1.086       .  S
C1309      C1310   1.357   1_565  D
C1309      H1311   1.086       .  S
C1313      C1314   1.360   1_545  D
C1314      C1336   1.565       .  S
C1314      H1316   1.086       .  S
C1317      C1318   1.354       .  D
C1317      H1319   1.084       .  S
O1321     Cu1329   2.007       .  S
O1321      C1331   1.276       .  A
O1322     Cu1329   1.998       .  S
O1323     Cu1329   1.991       .  S
O1324     Cu1329   1.996       .  S
O1324      C1334   1.277       .  A
O1325     Cu1330   2.028       .  S
O1326     Cu1330   2.006       .  S
O1326      C1333   1.279       .  A
O1327     Cu1330   2.023       .  S
O1327      C1332   1.277   1_565  A
O1328     Cu1330   2.001       .  S
C1331      C1569   1.467       .  S
C1332      C1577   1.474       .  S
C1335      C1573   1.559       .  S
C1336      C1441   1.585       .  S
O1337     Cu1345   2.018       .  S
O1337      C1347   1.281       .  A
O1338     Cu1345   2.031       .  S
O1338      C1348   1.279       .  A
O1339     Cu1345   1.988       .  S
O1339      C1349   1.275       .  A
O1340     Cu1345   2.009       .  S
O1340      C1350   1.274       .  A
O1341     Cu1346   2.041       .  S
O1341      C1350   1.283       .  A
O1342     Cu1346   2.022       .  S
O1342      C1349   1.278       .  A
O1343     Cu1346   1.993       .  S
O1343      C1348   1.276       .  A
O1344     Cu1346   2.028       .  S
O1344      C1347   1.278       .  A
Cu1345    Cu1346   2.374       .  S
C1347      C1557   1.482       .  S
C1348      C1561   1.471       .  S
C1349      C1565   1.466       .  S
C1350      C1553   1.478       .  S
C1351      C1558   1.560       .  S
C1351      C1508   1.590       .  S
C1352      C1566   1.547       .  S
C1352      C1440   1.584       .  S
O1353      C1363   1.275       .  A
O1354     Cu1361   2.004   1_455  S
O1354      C1364   1.279       .  A
O1355      C1365   1.277       .  A
O1356     Cu1361   2.008       .  S
O1356      C1366   1.279       .  A
O1357     Cu1362   2.013       .  S
O1357      C1366   1.277       .  A
O1358      C1365   1.275       .  A
O1359     Cu1362   2.010   1_455  S
O1359      C1364   1.276       .  A
O1360      C1363   1.279       .  A
Cu1361    Cu1362   2.380       .  S
C1363      C1545   1.465       .  S
C1364      C1538   1.467       .  S
C1365      C1542   1.460       .  S
C1366      C1549   1.469       .  S
C1367      C1537   1.543       .  S
C1367      C1541   1.559       .  S
C1367      C1475   1.588       .  S
C1367      C1509   1.603       .  S
C1368      C1546   1.563       .  S
C1368      C1550   1.547       .  S
C1368      C1406   1.580       .  S
C1368      C1439   1.599       .  S
O1370     Cu1377   2.013       .  S
O1372     Cu1377   2.006   1_455  S
O1373     Cu1378   2.014   1_455  S
O1373      C1382   1.276       .  A
O1374      C1381   1.279       .  A
O1375     Cu1378   2.003       .  S
O1375      C1380   1.275       .  A
O1376      C1379   1.278       .  A
C1380      C1533   1.464       .  S
C1382      C1521   1.474       .  S
C1383      C1525   1.556   1_545  S
C1383      C1510   1.604   1_545  S
C1384      C1530   1.565   1_545  S
C1384      C1442   1.602   1_545  S
N1385      C1390   1.354       .  A
N1385      C1389   1.356       .  A
N1385      H1417   1.043       .  S
N1386      C1393   1.367       .  A
N1386      C1394   1.371       .  A
N1387      C1392   1.362       .  A
N1387      C1391   1.360       .  A
N1387      H1418   1.045       .  S
N1388      C1395   1.364       .  A
N1388      C1396   1.371       .  A
C1389      C1397   1.384       .  A
C1389      C1405   1.414       .  A
C1390      C1406   1.416       .  A
C1390      C1398   1.385       .  A
C1391      C1399   1.387       .  A
C1391      C1408   1.433       .  A
C1392      C1407   1.434       .  A
C1392      C1400   1.387       .  A
C1393      C1405   1.433       .  A
C1394      C1408   1.439       .  A
C1395      C1403   1.372       .  A
C1395      C1406   1.433       .  A
C1396      C1404   1.379       .  A
C1396      C1407   1.434       .  A
C1397      C1398   1.352       .  A
C1397      H1409   1.080       .  S
C1398      H1410   1.080       .  S
C1399      C1400   1.372       .  A
C1401      C1402   1.341       .  A
C1401      H1413   1.057       .  S
C1402      H1414   1.067       .  S
C1403      C1404   1.341       .  A
C1403      H1415   1.056       .  S
C1404      H1416   1.067       .  S
N1419      C1424   1.369       .  A
N1419      C1423   1.367       .  A
N1419      H1451   1.030       .  S
N1420      C1427   1.367       .  A
N1420      C1428   1.367       .  A
N1421      C1426   1.368       .  A
N1421      C1425   1.368       .  A
N1421      H1452   1.030       .  S
N1422      C1429   1.357       .  A
N1422      C1430   1.356       .  A
C1423      C1431   1.394       .  A
C1423      C1439   1.461       .  A
C1424      C1440   1.446       .  A
C1424      C1432   1.380       .  A
C1425      C1433   1.392   1_565  A
C1425      C1442   1.460       .  A
C1426      C1441   1.448       .  A
C1426      C1434   1.381   1_565  A
C1427      C1439   1.447       .  A
C1427      C1435   1.383       .  A
C1428      C1442   1.445       .  A
C1428      C1436   1.382       .  A
C1429      C1437   1.385       .  A
C1429      C1440   1.424       .  A
C1430      C1438   1.384       .  A
C1430      C1441   1.424       .  A
C1431      C1432   1.356       .  A
C1431      H1443   1.070       .  S
C1432      H1444   1.076       .  S
C1433      C1434   1.355       .  A
C1435      C1436   1.340       .  A
C1435      H1447   1.068       .  S
C1436      H1448   1.069       .  S
C1437      C1438   1.363       .  A
N1453      C1458   1.374       .  A
N1453      C1457   1.365       .  A
N1453      H1485   1.042       .  S
N1454      C1461   1.356       .  A
N1454      C1462   1.362       .  A
N1455      C1460   1.365       .  A
N1455      C1459   1.373       .  A
N1455      H1486   1.042       .  S
N1456      C1463   1.360       .  A
N1456      C1464   1.356       .  A
C1457      C1465   1.376       .  A
C1457      C1473   1.437       .  A
C1458      C1474   1.441       .  A
C1458      C1466   1.382       .  A
C1459      C1467   1.377       .  A
C1459      C1476   1.437       .  A
C1460      C1475   1.436       .  A
C1460      C1468   1.372       .  A
C1461      C1473   1.427       .  A
C1461      C1469   1.386       .  A
C1462      C1476   1.421       .  A
C1462      C1470   1.379       .  A
C1463      C1471   1.383       .  A
C1463      C1474   1.424       .  A
C1464      C1472   1.386       .  A
C1464      C1475   1.424       .  A
C1465      C1466   1.348       .  A
C1467      C1468   1.339       .  A
C1467      H1479   1.066       .  S
C1468      H1480   1.053       .  S
C1469      C1470   1.353       .  A
C1471      C1472   1.359       .  A
C1471      H1483   1.081       .  S
C1472      H1484   1.081       .  S
N1487      C1492   1.360       .  A
N1487      C1491   1.358       .  A
N1487      H1519   1.044       .  S
N1488      C1495   1.364       .  A
N1488      C1496   1.365       .  A
N1489      C1494   1.369       .  A
N1489      C1493   1.372       .  A
N1489      H1520   1.036       .  S
N1490      C1497   1.368       .  A
N1490      C1498   1.367       .  A
C1491      C1499   1.381       .  A
C1491      C1507   1.420       .  A
C1492      C1508   1.427       .  A
C1492      C1500   1.386       .  A
C1493      C1501   1.382       .  A
C1493      C1510   1.449       .  A
C1494      C1509   1.451       .  A
C1494      C1502   1.385       .  A
C1495      C1507   1.437       .  A
C1495      C1503   1.381   1_565  A
C1496      C1510   1.446       .  A
C1496      C1504   1.388   1_565  A
C1497      C1505   1.379       .  A
C1497      C1508   1.440       .  A
C1498      C1506   1.391       .  A
C1498      C1509   1.454       .  A
C1499      C1500   1.367       .  A
C1501      C1502   1.342       .  A
C1501      H1513   1.070       .  S
C1502      H1514   1.069       .  S
C1503      C1504   1.346       .  A
C1505      C1506   1.350       .  A
C1505      H1517   1.076       .  S
C1506      H1518   1.072       .  S
C1521      C1522   1.359       .  D
C1522      H1524   1.083       .  S
C1525      C1526   1.354   1_565  D
C1526      H1528   1.080       .  S
C1529      C1530   1.361   1_545  D
C1530      H1532   1.087       .  S
C1533      C1534   1.357       .  D
C1533      H1535   1.086       .  S
C1537      C1538   1.356       .  D
C1537      H1539   1.084       .  S
C1538      H1540   1.086       .  S
C1541      C1542   1.356       .  D
C1541      H1543   1.087       .  S
C1542      H1544   1.080       .  S
C1545      C1546   1.360       .  D
C1545      H1547   1.080       .  S
C1546      H1548   1.087       .  S
C1549      C1550   1.357       .  D
C1549      H1551   1.086       .  S
C1550      H1552   1.083       .  S
C1553      C1554   1.353       .  D
C1553      H1555   1.081       .  S
C1554      H1556   1.079       .  S
C1557      C1558   1.360       .  D
C1557      H1559   1.087       .  S
C1558      H1560   1.084       .  S
C1561      C1562   1.350       .  D
C1561      H1563   1.081       .  S
C1562      H1564   1.087       .  S
C1565      C1566   1.353       .  D
C1565      H1567   1.086       .  S
C1566      H1568   1.084       .  S
C1569      C1570   1.353       .  D
C1569      H1571   1.081       .  S
C1573      C1574   1.356   1_565  D
C1573      H1575   1.086       .  S
C1577      C1578   1.354   1_545  D
C1578      H1580   1.086       .  S
C1581      C1582   1.357       .  D
C1581      H1583   1.084       .  S
