geometry optimzed in LAMMPS
_audit_creation_date              2020-12-01 
_audit_creation_method            'lammps2cif' 
_symmetry_space_group_name_H-M    'P1' 
_symmetry_Int_Tables_number       1 
_symmetry_cell_setting            triclinic 
loop_ 
_symmetry_equiv_pos_as_xyz 
  x,y,z 
_cell_length_a                    24.67980549 
_cell_length_b                    26.36893292274871 
_cell_length_c                    44.315688552592846 
_cell_angle_alpha                 91.11192204687862 
_cell_angle_beta                  88.60342422953333 
_cell_angle_gamma                 88.87731094530594 
loop_ 
_atom_site_label 
_atom_site_type_symbol 
_atom_site_fract_x 
_atom_site_fract_y 
_atom_site_fract_z 
_atom_site_charge 
O1          O  0.04163438  0.31193893  0.27388233    -0.71600
O2          O  0.03963663  0.20026239  0.21853133    -0.71800
O3          O  0.03556659  0.30294615  0.21367899    -0.71700
O4          O  0.04424770  0.20998896  0.27895899    -0.71700
O5          O  0.45233900  0.20133540  0.28077999    -0.71600
O6          O  0.44740175  0.29873592  0.21807079    -0.71700
O7          O  0.45055127  0.19490870  0.22030081    -0.71600
O8          O  0.45014718  0.30337085  0.27873797    -0.71800
V9          V  0.03860188  0.25617302  0.24624856     1.35200
V10         V  0.45175358  0.24961567  0.24927870     1.35200
C11         C  0.49408669  0.32354763  0.28625882     0.77700
C12         C  0.99576960  0.18125516  0.21012915     0.77700
C13         C  0.99017741  0.32218996  0.20662468     0.77600
C14         C  0.49679170  0.18660866  0.29155798     0.77500
C15         C  0.00394356  0.50147722  0.12711739    -0.02300
C16         C  0.50198802  0.00497926  0.36862513    -0.02300
O17         O  0.18637495  0.46694092  0.47508845    -0.71600
O18         O  0.30483981  0.46193331  0.03340713    -0.71800
O19         O  0.19837140  0.47348110  0.03649976    -0.71700
O20         O  0.29494569  0.45673065  0.47089907    -0.71700
O21         O  0.30106349  0.03892699  0.46727094    -0.71600
O22         O  0.21057169  0.05454498  0.03333301    -0.71700
O23         O  0.31772192  0.04438247  0.02798761    -0.71600
O24         O  0.19286891  0.05026632  0.47265572    -0.71800
V25         V  0.24315832  0.46483859  0.50343020     1.35200
V26         V  0.26035161  0.04557606  0.00003985     1.35200
C27         C  0.16996888  0.50907076  0.46504107     0.77700
C28         C  0.32802584  0.50198578  0.04148834     0.77700
C29         C  0.18796316  0.51725589  0.04772519     0.77600
C30         C  0.31523566  0.49547160  0.45897359     0.77500
C31         C  0.13157261  0.47037197  0.41925217    -0.05600
C32         C  0.12971785  0.51056112  0.44030313     0.00300
C33         C  0.09358293  0.05316773  0.43352537    -0.08200
C34         C  0.05527304  0.04879816  0.41077197    -0.05600
C35         C  0.05527704  0.50591422  0.39089131     0.00300
C36         C  0.09738747  0.46691048  0.39406876    -0.08100
C37         C  0.10775432  0.41807317  0.37513743     0.62200
H38         H  0.16123489  0.44048459  0.42297430     0.12900
H39         H  0.02492617  0.07873104  0.40937057     0.12900
C40         C  0.09235703  0.10017286  0.45378208     0.62500
F41         F  0.06116696  0.88259770  0.38720571    -0.22700
F42         F  0.14933491  0.89274365  0.37984199    -0.20000
F43         F  0.10006307  0.42329236  0.34481645    -0.19700
F44         F  0.08532652  0.08586119  0.48333097    -0.19800
F45         F  0.13085269  0.62362849  0.45745614    -0.20100
F46         F  0.04073485  0.62499361  0.45380559    -0.22700
C47         C  0.45221186  0.47451476  0.41979744    -0.05600
C48         C  0.44643096  0.49781719  0.39107372     0.00300
C49         C  0.39160599  0.00611606  0.38144588    -0.08200
C50         C  0.35051484  0.00863183  0.40433740    -0.05600
C51         C  0.35855293  0.49054373  0.43499904     0.00300
C52         C  0.40904755  0.46748426  0.44045551    -0.08100
C53         C  0.41655880  0.43296563  0.46707867     0.62200
H54         H  0.49027879  0.45710041  0.42550900     0.12900
H55         H  0.30958155  0.02032528  0.39885113     0.12900
C56         C  0.36949548  0.00778498  0.34978777     0.63500
F57         F  0.46953189  0.41543922  0.46924956    -0.22700
F58         F  0.38380280  0.39136653  0.46387797    -0.20000
F59         F  0.40253828  0.95808458  0.49207591    -0.19700
F60         F  0.40741962  0.50779541  0.32905852    -0.19800
F61         F  0.34048654  0.05244078  0.34600686    -0.20100
F62         F  0.33462707  0.96779678  0.34598284    -0.22700
C63         C  0.07676401  0.05563847  0.10028416    -0.05600
C64         C  0.06375159  0.51091149  0.11567766     0.00300
C65         C  0.11196183  0.47975233  0.11879168    -0.08200
C66         C  0.15257264  0.48310273  0.09599313    -0.05600
C67         C  0.15312454  0.52299194  0.07550199     0.00300
C68         C  0.12245537  0.06309827  0.08134370    -0.08100
C69         C  0.13283421  0.11538966  0.06888176     0.62200
H70         H  0.04774558  0.08636757  0.10276673     0.12900
H71         H  0.18475320  0.45457405  0.09449941     0.12900
C72         C  0.12884613  0.44718122  0.14533961     0.62500
F73         F  0.12098945  0.61450374  0.03734094    -0.22700
F74         F  0.17861275  0.63251231  0.07456792    -0.20000
F75         F  0.09835873  0.15198522  0.08206204    -0.19700
F76         F  0.14034061  0.39792615  0.13559816    -0.19800
F77         F  0.09509461  0.94363874  0.16654158    -0.20100
F78         F  0.17958348  0.95197469  0.15042146    -0.22700
C79         C  0.42570601  0.00743794  0.05265936    -0.05600
C80         C  0.37192831  0.49989198  0.06322904     0.00300
C81         C  0.36464274  0.48512725  0.09335431    -0.08200
C82         C  0.40995766  0.48474257  0.11206804    -0.05600
C83         C  0.46377812  0.49318387  0.10124409     0.00300
C84         C  0.46985195  0.99296684  0.06999270    -0.08100
C85         C  0.51836482  0.97748372  0.04990749     0.62200
H86         H  0.43273761  0.01909921  0.02961974     0.12900
H87         H  0.40255050  0.47979697  0.13584592     0.12900
C88         C  0.30871220  0.47412099  0.10626771     0.62500
F89         F  0.53756052  0.53735954  0.03910921    -0.22700
F90         F  0.00873234  0.46631826  0.02344963    -0.20000
F91         F  0.06099661  0.97313275  0.05830909    -0.19700
F92         F  0.28797150  0.43251234  0.09141107    -0.19800
F93         F  0.27320625  0.01737848  0.09965897    -0.20100
F94         F  0.30443094  0.96456106  0.13454470    -0.22700
C95         C  0.47259908  0.44773389  0.17330117    -0.05600
C96         C  0.99668388  0.45001241  0.14532276     0.00300
C97         C  0.01141098  0.39875625  0.13506843    -0.08200
C98         C  0.01230206  0.35952412  0.15658330    -0.05600
C99         C  0.98691171  0.36492535  0.18498724     0.00300
C100        C  0.46292374  0.40566619  0.19173719    -0.08100
C101        C  0.42363428  0.41131214  0.21855323     0.62200
H102        H  0.45378906  0.48320011  0.18058774     0.12900
H103        H  0.03043775  0.32279328  0.15070058     0.12900
C104        C  0.02235528  0.38138176  0.10233701     0.62500
F105        F  0.40420005  0.46061763  0.22273409    -0.22700
F106        F  0.44872399  0.39733793  0.24454835    -0.20000
F107        F  0.37972484  0.38054151  0.21398719    -0.19700
F108        F  0.98388517  0.40085434  0.08359017    -0.19800
F109        F  0.01950776  0.32911741  0.09913811    -0.20100
F110        F  0.07333911  0.39396391  0.09244410    -0.22700
C111        C  0.45843932  0.12473056  0.16857103    -0.05600
C112        C  0.99628070  0.13568822  0.18944974     0.00300
C113        C  0.03235659  0.09415985  0.19271112    -0.08200
C114        C  0.03035377  0.05289931  0.17225304    -0.05600
C115        C  0.99533966  0.05018009  0.14729934     0.00300
C116        C  0.46038671  0.08658816  0.14557982    -0.08100
C117        C  0.42760188  0.10162250  0.11807722     0.62200
H118        H  0.42950481  0.15606517  0.16749205     0.12900
H119        H  0.05834384  0.02208647  0.17530615     0.12900
C120        C  0.07289094  0.09260444  0.21799269     0.62500
F121        F  0.42150203  0.15390818  0.11641647    -0.22700
F122        F  0.37615248  0.08238490  0.12029011    -0.20000
F123        F  0.45257691  0.08770611  0.09120645    -0.19700
F124        F  0.04669474  0.10332552  0.24535386    -0.19800
F125        F  0.11262750  0.12788963  0.21290631    -0.20100
F126        F  0.09821893  0.04550213  0.21997341    -0.22700
C127        C  0.51707949  0.41248960  0.29638392    -0.05600
C128        C  0.49452902  0.36824035  0.30705919     0.00300
C129        C  0.98336105  0.37306055  0.33759657    -0.08200
C130        C  0.98928410  0.41688771  0.35556357    -0.05600
C131        C  0.49763040  0.45891162  0.34452619     0.00300
C132        C  0.51140256  0.45940560  0.31218761    -0.08100
C133        C  0.01023218  0.51126641  0.29034573     0.62200
H134        H  0.53493719  0.41106046  0.27375875     0.12900
H135        H  0.98197848  0.41295233  0.37934978     0.12900
C136        C  0.44515563  0.32169565  0.34867902     0.62500
F137        F  0.06166720  0.52968517  0.28633764    -0.22700
F138        F  0.98237438  0.05030238  0.29642112    -0.20000
F139        F  0.50328957  0.98883393  0.26079729    -0.19700
F140        F  0.99471297  0.28527945  0.34627508    -0.19800
F141        F  0.39918056  0.31191515  0.33252134    -0.20100
F142        F  0.42968561  0.32754626  0.37880377    -0.22700
C143        C  0.46099419  0.09357029  0.35479931    -0.05600
C144        C  0.50641255  0.05967642  0.35365107     0.00300
C145        C  0.05798815  0.08417284  0.33793975    -0.08200
C146        C  0.05353534  0.12720097  0.31932988    -0.05600
C147        C  0.49923852  0.14753964  0.31590348     0.00300
C148        C  0.45470402  0.13430693  0.33482686    -0.08100
C149        C  0.39986624  0.16143468  0.33370684     0.62200
H150        H  0.42886435  0.08814029  0.37089467     0.12900
H151        H  0.08843712  0.13952262  0.30641263     0.12900
C152        C  0.11521408  0.06147211  0.34081795     0.62500
F153        F  0.36519347  0.14805461  0.35710759    -0.22700
F154        F  0.37537956  0.14946414  0.30681610    -0.20000
F155        F  0.40619284  0.21305016  0.33600381    -0.19700
F156        F  0.11598704  0.00996882  0.33591969    -0.19800
F157        F  0.13492353  0.07258069  0.36899165    -0.20100
F158        F  0.15161302  0.08100353  0.32000280    -0.22700
O159        O  0.04231982  0.30345286  0.77575790    -0.71600
O160        O  0.03420584  0.19229148  0.72092282    -0.71800
O161        O  0.03065326  0.29468564  0.71605233    -0.71700
O162        O  0.04444693  0.20191747  0.78095793    -0.71700
O163        O  0.45291661  0.19855587  0.78222641    -0.71600
O164        O  0.44216653  0.29700385  0.72037623    -0.71700
O165        O  0.44423429  0.19319386  0.72162130    -0.71600
O166        O  0.45182087  0.30037689  0.78055580    -0.71800
V167        V  0.03616206  0.24797260  0.74847761     1.35200
V168        V  0.44938173  0.24723141  0.75095009     1.35200
C169        C  0.49684393  0.31978668  0.78669854     0.77700
C170        C  0.98954080  0.17328623  0.71403126     0.77700
C171        C  0.98481703  0.31406620  0.71002794     0.77600
C172        C  0.49845680  0.18346271  0.79142680     0.77500
C173        C  0.99712315  0.49189964  0.62918867    -0.02300
C174        C  0.50989139  0.00212759  0.86722915    -0.02300
O175        O  0.19472774  0.46551143  0.97515331    -0.71600
O176        O  0.29920020  0.45977551  0.53181338    -0.71800
O177        O  0.19246869  0.46942379  0.53645269    -0.71700
O178        O  0.30324882  0.45454449  0.97250778    -0.71700
O179        O  0.31117787  0.03972224  0.96692010    -0.71600
O180        O  0.20077325  0.05172421  0.53386617    -0.71700
O181        O  0.30801129  0.04037389  0.52811330    -0.71600
O182        O  0.20288377  0.04972879  0.97209339    -0.71800
V183        V  0.25022150  0.46544086  0.00423200     1.35200
V184        V  0.25037338  0.04379229  0.50042848     1.35200
C185        C  0.17880699  0.50693078  0.96406500     0.77700
C186        C  0.32173312  0.49961297  0.54096655     0.77700
C187        C  0.18114550  0.51214443  0.54878470     0.77600
C188        C  0.32353575  0.49237659  0.95953343     0.77500
C189        C  0.14019490  0.46568472  0.91893585    -0.05600
C190        C  0.13887362  0.50707764  0.93922490     0.00300
C191        C  0.10101730  0.04758385  0.93494553    -0.08200
C192        C  0.06199494  0.04132598  0.91273854    -0.05600
C193        C  0.06592430  0.50165759  0.88934711     0.00300
C194        C  0.10797539  0.46281946  0.89293571    -0.08100
C195        C  0.12352181  0.41650901  0.87267431     0.62200
H196        H  0.16928489  0.43537342  0.92300902     0.12900
H197        H  0.02983794  0.06963350  0.91202685     0.12900
C198        C  0.09794306  0.09421482  0.95560828     0.62500
F199        F  0.07538465  0.87609765  0.88908463    -0.22700
F200        F  0.16262271  0.88941634  0.88027585    -0.20000
F201        F  0.11047402  0.42001353  0.84290465    -0.19700
F202        F  0.09469275  0.07932685  0.98527838    -0.19800
F203        F  0.14375573  0.62116656  0.95293123    -0.20100
F204        F  0.05379937  0.62494643  0.94907106    -0.22700
C205        C  0.45923766  0.47010443  0.91963938    -0.05600
C206        C  0.45297229  0.49417919  0.89109924     0.00300
C207        C  0.39999729  0.00283949  0.88067316    -0.08200
C208        C  0.35996298  0.00775042  0.90421511    -0.05600
C209        C  0.36608708  0.48633216  0.93538253     0.00300
C210        C  0.41641030  0.46276896  0.94048058    -0.08100
C211        C  0.42407263  0.42775976  0.96691939     0.62200
H212        H  0.49737356  0.45243429  0.92500853     0.12900
H213        H  0.31917388  0.02072404  0.89952089     0.12900
C214        C  0.37880068  0.99865572  0.84857609     0.63500
F215        F  0.47692816  0.40965445  0.96864120    -0.22700
F216        F  0.39078770  0.38652975  0.96365922    -0.20000
F217        F  0.41334661  0.95986813  0.99191263    -0.19700
F218        F  0.33593548  0.47058997  0.84801552    -0.19800
F219        F  0.39577812  0.03735112  0.83077891    -0.20100
F220        F  0.32265593  0.00017051  0.84841568    -0.22700
C221        C  0.06567356  0.05043425  0.60007718    -0.05600
C222        C  0.05679918  0.50105257  0.61714626     0.00300
C223        C  0.10493581  0.46939601  0.61924417    -0.08200
C224        C  0.14505262  0.47365059  0.59611808    -0.05600
C225        C  0.14590976  0.51519166  0.57668033     0.00300
C226        C  0.11040469  0.05841430  0.58067492    -0.08100
C227        C  0.11839720  0.11045608  0.56737238     0.62200
H228        H  0.03560300  0.08027676  0.60237826     0.12900
H229        H  0.17693653  0.44493152  0.59383365     0.12900
C230        C  0.12218358  0.43577465  0.64526448     0.62500
F231        F  0.11334179  0.61063834  0.54163118    -0.22700
F232        F  0.17276156  0.62384071  0.57877004    -0.20000
F233        F  0.08185018  0.14620727  0.57958100    -0.19700
F234        F  0.13062799  0.38619779  0.63528815    -0.19800
F235        F  0.08778587  0.93860168  0.66714139    -0.20100
F236        F  0.17180924  0.95243625  0.65177411    -0.22700
C237        C  0.41604793  0.00742292  0.55173588    -0.05600
C238        C  0.36546946  0.49682048  0.56286499     0.00300
C239        C  0.35758745  0.48031876  0.59260490    -0.08200
C240        C  0.40234620  0.47915404  0.61172321    -0.05600
C241        C  0.45611355  0.48960886  0.60171006     0.00300
C242        C  0.46173209  0.99554171  0.56864770    -0.08100
C243        C  0.51191658  0.98864452  0.54829494     0.62200
H244        H  0.42146209  0.02239491  0.52925546     0.12900
H245        H  0.39440249  0.47249597  0.63530369     0.12900
C246        C  0.30130213  0.46908288  0.60489940     0.62500
F247        F  0.53143371  0.53205009  0.53796077    -0.22700
F248        F  0.99985167  0.45813552  0.52520534    -0.20000
F249        F  0.05132571  0.95916762  0.56251470    -0.19700
F250        F  0.28045809  0.42852402  0.58910015    -0.19800
F251        F  0.26488088  0.99792916  0.59894227    -0.20100
F252        F  0.30101283  0.94195386  0.63051019    -0.22700
C253        C  0.46478044  0.44538756  0.67461252    -0.05600
C254        C  0.98982050  0.44081492  0.64782888     0.00300
C255        C  0.00317896  0.38924181  0.63768015    -0.08200
C256        C  0.00448896  0.35035736  0.65942028    -0.05600
C257        C  0.98039835  0.35643042  0.68813859     0.00300
C258        C  0.45608057  0.40371251  0.69346081    -0.08100
C259        C  0.41947435  0.41015562  0.72139226     0.62200
H260        H  0.44639975  0.48102457  0.68194502     0.12900
H261        H  0.02193779  0.31336153  0.65350839     0.12900
C262        C  0.01195785  0.37120327  0.60488280     0.62500
F263        F  0.40053387  0.45962230  0.72564983    -0.22700
F264        F  0.44719665  0.39676659  0.74669101    -0.20000
F265        F  0.37504338  0.37944129  0.71855326    -0.19700
F266        F  0.97254545  0.39060597  0.58670362    -0.19800
F267        F  0.00849154  0.31892003  0.60213433    -0.20100
F268        F  0.06237035  0.38329159  0.59389334    -0.22700
C269        C  0.44943362  0.12447063  0.66757671    -0.05600
C270        C  0.98850323  0.12797422  0.69333391     0.00300
C271        C  0.02564136  0.08699620  0.69536740    -0.08200
C272        C  0.02390781  0.04690960  0.67411517    -0.05600
C273        C  0.98820623  0.04497647  0.64947211     0.00300
C274        C  0.44914322  0.08480726  0.64532353    -0.08100
C275        C  0.41251753  0.09607723  0.61880035     0.62200
H276        H  0.42190099  0.15676266  0.66639738     0.12900
H277        H  0.05278789  0.01652956  0.67630671     0.12900
C278        C  0.06678128  0.08479401  0.72030411     0.62500
F279        F  0.39400261  0.14605525  0.61897181    -0.22700
F280        F  0.36687694  0.06710149  0.62029909    -0.20000
F281        F  0.44003649  0.08931308  0.59168023    -0.19700
F282        F  0.04131304  0.09571773  0.74783869    -0.19800
F283        F  0.10688378  0.11964506  0.71503835    -0.20100
F284        F  0.09143097  0.03734050  0.72199105    -0.22700
C285        C  0.52254644  0.40799432  0.79647923    -0.05600
C286        C  0.49990537  0.36402147  0.80753043     0.00300
C287        C  0.99344135  0.36720250  0.83986798    -0.08200
C288        C  0.00276581  0.41151206  0.85665581    -0.05600
C289        C  0.50344243  0.45508165  0.84439859     0.00300
C290        C  0.51697553  0.45513145  0.81202829    -0.08100
C291        C  0.02285833  0.50330852  0.78900452     0.62200
H292        H  0.53933087  0.40636679  0.77360778     0.12900
H293        H  0.00014817  0.40868145  0.88080386     0.12900
C294        C  0.45294942  0.31751368  0.85003832     0.62500
F295        F  0.07535224  0.51966879  0.78640467    -0.22700
F296        F  0.97797773  0.04045917  0.80187910    -0.20000
F297        F  0.49583965  0.98885496  0.76044301    -0.19700
F298        F  0.00613416  0.27989402  0.84960156    -0.19800
F299        F  0.40584101  0.30730218  0.83504004    -0.20100
F300        F  0.43976632  0.32326833  0.88047918    -0.22700
C301        C  0.47058072  0.09248783  0.85693433    -0.05600
C302        C  0.51422793  0.05718743  0.85295756     0.00300
C303        C  0.06408286  0.07609604  0.83874744    -0.08200
C304        C  0.05770451  0.11922742  0.82046320    -0.05600
C305        C  0.50358279  0.14495538  0.81591329     0.00300
C306        C  0.46160353  0.13261298  0.83686491    -0.08100
C307        C  0.40639107  0.15916072  0.83759920     0.62200
H308        H  0.44059133  0.08692681  0.87439223     0.12900
H309        H  0.09098996  0.13099920  0.80608389     0.12900
C310        C  0.12134242  0.05325454  0.84010510     0.62500
F311        F  0.37385136  0.14415532  0.86158407    -0.22700
F312        F  0.37960584  0.14813835  0.81130746    -0.20000
F313        F  0.41245137  0.21066984  0.84048134    -0.19700
F314        F  0.12164858  0.00224212  0.83362074    -0.19800
F315        F  0.14224017  0.06186993  0.86829734    -0.20100
F316        F  0.15678537  0.07468648  0.81949798    -0.22700
O317        O  0.03990693  0.81222624  0.27533025    -0.71600
O318        O  0.03820904  0.70014253  0.22040953    -0.71800
O319        O  0.03449974  0.80287770  0.21506058    -0.71700
O320        O  0.04249411  0.71039973  0.28081156    -0.71700
O321        O  0.45093246  0.69855171  0.28349650    -0.71600
O322        O  0.44306911  0.79808405  0.22228731    -0.71700
O323        O  0.44785524  0.69419407  0.22272047    -0.71600
O324        O  0.44720719  0.80055170  0.28280214    -0.71800
V325        V  0.03708404  0.75631231  0.24790436     1.35200
V326        V  0.44886230  0.74777270  0.25264409     1.35200
C327        C  0.49113175  0.82142884  0.28965432     0.77700
C328        C  0.99427109  0.68133666  0.21197808     0.77700
C329        C  0.98933821  0.82238421  0.20776389     0.77600
C330        C  0.49577728  0.68490054  0.29422982     0.77500
C331        C  0.00565984  0.00044728  0.12598295    -0.02300
C332        C  0.50038711  0.50313714  0.36969167    -0.02300
O333        O  0.18665341  0.96844668  0.47220284    -0.71600
O334        O  0.30859630  0.96278108  0.03081136    -0.71800
O335        O  0.20210959  0.97296124  0.03407890    -0.71700
O336        O  0.29497935  0.95692719  0.46845128    -0.71700
O337        O  0.29962470  0.53874805  0.46908312    -0.71600
O338        O  0.20823869  0.55487478  0.03470301    -0.71700
O339        O  0.31519608  0.54316161  0.02908050    -0.71600
O340        O  0.19117501  0.54889163  0.47533250    -0.71800
V341        V  0.24279249  0.96519594  0.50073136     1.35200
V342        V  0.25750966  0.54385753  0.00142896     1.35200
C343        C  0.17114862  0.01082923  0.46217092     0.77700
C344        C  0.33072867  0.00279912  0.03988358     0.77700
C345        C  0.19080478  0.01613458  0.04583451     0.77600
C346        C  0.31603555  0.99567773  0.45696516     0.77500
C347        C  0.12983082  0.97100498  0.41763464    -0.05600
C348        C  0.13075860  0.01273553  0.43754097     0.00300
C349        C  0.09077333  0.54973039  0.43693349    -0.08200
C350        C  0.05455948  0.54622769  0.41297227    -0.05600
C351        C  0.05332993  0.00715063  0.38981468     0.00300
C352        C  0.09354505  0.96663432  0.39349586    -0.08100
C353        C  0.09901619  0.91575008  0.37613245     0.62200
H354        H  0.15847686  0.94047204  0.42171633     0.12900
H355        H  0.02329605  0.57535233  0.41173874     0.12900
C356        C  0.08528188  0.59407252  0.45927580     0.62500
F357        F  0.07584639  0.37996880  0.38634878    -0.22700
F358        F  0.16119447  0.40143194  0.37698300    -0.20000
F359        F  0.09503288  0.92044264  0.34549230    -0.19700
F360        F  0.07918793  0.57592379  0.48815373    -0.19800
F361        F  0.14032301  0.12591333  0.45033537    -0.20100
F362        F  0.05038107  0.13348682  0.44724317    -0.22700
C363        C  0.45363145  0.97740825  0.41900981    -0.05600
C364        C  0.44780568  0.99956986  0.38990624     0.00300
C365        C  0.39032233  0.50601632  0.38298699    -0.08200
C366        C  0.34942279  0.50835189  0.40605802    -0.05600
C367        C  0.35948072  0.99096397  0.43327730     0.00300
C368        C  0.41015017  0.96889240  0.43913878    -0.08100
C369        C  0.41737604  0.93355772  0.46542171     0.62200
H370        H  0.49201259  0.96137995  0.42534545     0.12900
H371        H  0.30859780  0.52068449  0.40078913     0.12900
C372        C  0.36841553  0.51005830  0.35138731     0.63500
F373        F  0.47033978  0.91602640  0.46763519    -0.22700
F374        F  0.38482529  0.89195585  0.46152147    -0.20000
F375        F  0.40221945  0.45840358  0.49348981    -0.19700
F376        F  0.40820558  0.00363609  0.32740637    -0.19800
F377        F  0.33927062  0.55498822  0.34879204    -0.20100
F378        F  0.33382598  0.47025284  0.34637974    -0.22700
C379        C  0.07220552  0.55714234  0.10043488    -0.05600
C380        C  0.06588001  0.00850271  0.11407912     0.00300
C381        C  0.11260948  0.97508503  0.11573081    -0.08200
C382        C  0.15273070  0.97831529  0.09261499    -0.05600
C383        C  0.15544535  0.02024073  0.07356818     0.00300
C384        C  0.11806403  0.56500976  0.08174932    -0.08100
C385        C  0.12695368  0.61668247  0.06819559     0.62200
H386        H  0.04090100  0.58618107  0.10139275     0.12900
H387        H  0.18316344  0.94830309  0.09001398     0.12900
C388        C  0.12814065  0.93982903  0.14120594     0.62500
F389        F  0.12527503  0.11550617  0.03813824    -0.22700
F390        F  0.18541129  0.12902135  0.07481081    -0.20000
F391        F  0.09049193  0.65279432  0.08008803    -0.19700
F392        F  0.13002460  0.88995908  0.13097316    -0.19800
F393        F  0.09233139  0.44554690  0.16909694    -0.20100
F394        F  0.17591812  0.46683642  0.15676143    -0.22700
C395        C  0.42349900  0.50943841  0.05216640    -0.05600
C396        C  0.37297686  0.00015537  0.06262371     0.00300
C397        C  0.36301705  0.98537685  0.09259402    -0.08200
C398        C  0.40686891  0.98330411  0.11234090    -0.05600
C399        C  0.46155638  0.98901579  0.10242911     0.00300
C400        C  0.46980537  0.49846942  0.06872123    -0.08100
C401        C  0.51939623  0.49079206  0.04807094     0.62200
H402        H  0.42795552  0.52116378  0.02892004     0.12900
H403        H  0.39793667  0.97855050  0.13602452     0.12900
C404        C  0.30603049  0.97522507  0.10407423     0.62500
F405        F  0.53999784  0.01993848  0.03706905    -0.22700
F406        F  0.00947906  0.97930196  0.01965798    -0.20000
F407        F  0.06112315  0.46845214  0.06205029    -0.19700
F408        F  0.28594561  0.93398626  0.08856192    -0.19800
F409        F  0.27477193  0.51578048  0.10261319    -0.20100
F410        F  0.30972886  0.46363009  0.13674757    -0.22700
C411        C  0.46669642  0.94577077  0.17538468    -0.05600
C412        C  0.99750123  0.94960274  0.14510042     0.00300
C413        C  0.00864635  0.89768010  0.13492280    -0.08200
C414        C  0.00948672  0.85850662  0.15666892    -0.05600
C415        C  0.98674097  0.86516665  0.18575116     0.00300
C416        C  0.45642210  0.90436509  0.19434544    -0.08100
C417        C  0.41499406  0.91023707  0.22015570     0.62200
H418        H  0.44817997  0.98173948  0.18203687     0.12900
H419        H  0.02481851  0.82087517  0.15049855     0.12900
C420        C  0.01450674  0.88025870  0.10189755     0.62500
F421        F  0.39394866  0.95921361  0.22293422    -0.22700
F422        F  0.43805413  0.89806384  0.24709219    -0.20000
F423        F  0.37241253  0.87813450  0.21496191    -0.19700
F424        F  0.96972938  0.89531991  0.08610449    -0.19800
F425        F  0.01798974  0.82788087  0.09897916    -0.20100
F426        F  0.06045311  0.89830437  0.08840710    -0.22700
C427        C  0.45919267  0.62789720  0.16817631    -0.05600
C428        C  0.99444203  0.63587138  0.19134854     0.00300
C429        C  0.02977293  0.59393508  0.19470588    -0.08200
C430        C  0.02755961  0.55299132  0.17406664    -0.05600
C431        C  0.99266830  0.55054568  0.14903223     0.00300
C432        C  0.46200753  0.59020850  0.14481381    -0.08100
C433        C  0.42881921  0.60462664  0.11735578     0.62200
H434        H  0.43082099  0.65963854  0.16698630     0.12900
H435        H  0.05557727  0.52225650  0.17708953     0.12900
C436        C  0.06925304  0.59159026  0.22046419     0.62500
F437        F  0.41913731  0.65655130  0.11641164    -0.22700
F438        F  0.37875343  0.58250695  0.11890100    -0.20000
F439        F  0.45530246  0.59294035  0.09050967    -0.19700
F440        F  0.04213052  0.60304690  0.24745118    -0.19800
F441        F  0.11004887  0.62600003  0.21590999    -0.20100
F442        F  0.09322224  0.54394119  0.22280838    -0.22700
C443        C  0.51140529  0.91114614  0.29662146    -0.05600
C444        C  0.49203520  0.86714285  0.30936206     0.00300
C445        C  0.97676789  0.87521748  0.33765577    -0.08200
C446        C  0.98010812  0.92004032  0.35490790    -0.05600
C447        C  0.49963567  0.95946981  0.34460582     0.00300
C448        C  0.50900512  0.95868699  0.31182784    -0.08100
C449        C  0.01656969  0.01019194  0.28907034     0.62200
H450        H  0.52609997  0.90824613  0.27338520     0.12900
H451        H  0.96845088  0.91725046  0.37824355     0.12900
C452        C  0.45189827  0.82175485  0.35441018     0.62500
F453        F  0.06941955  0.02552995  0.28605006    -0.22700
F454        F  0.97423983  0.54845985  0.30017806    -0.20000
F455        F  0.50082152  0.49040840  0.26186733    -0.19700
F456        F  0.99008904  0.78802152  0.34772078    -0.19800
F457        F  0.40330495  0.81106491  0.34106619    -0.20100
F458        F  0.44170614  0.82909028  0.38508085    -0.22700
C459        C  0.46138003  0.59302912  0.35784068    -0.05600
C460        C  0.50569140  0.55808874  0.35545552     0.00300
C461        C  0.05879785  0.58398327  0.33893423    -0.08200
C462        C  0.05315809  0.62717178  0.32052028    -0.05600
C463        C  0.49907628  0.64648111  0.31871710     0.00300
C464        C  0.45516503  0.63415512  0.33828898    -0.08100
C465        C  0.40122113  0.66294535  0.33848007     0.62200
H466        H  0.42998728  0.58794943  0.37446370     0.12900
H467        H  0.08737270  0.63962994  0.30709401     0.12900
C468        C  0.11619915  0.56173858  0.34123237     0.62500
F469        F  0.36798276  0.65075515  0.36277708    -0.22700
F470        F  0.37406616  0.65177019  0.31232420    -0.20000
F471        F  0.40978561  0.71422868  0.34043209    -0.19700
F472        F  0.11757623  0.51110358  0.33375675    -0.19800
F473        F  0.13504982  0.56906222  0.37000949    -0.20100
F474        F  0.15284083  0.58455905  0.32188318    -0.22700
O475        O  0.04439373  0.80593304  0.77412055    -0.71600
O476        O  0.03840006  0.69444570  0.71880579    -0.71800
O477        O  0.03369681  0.79756969  0.71412705    -0.71700
O478        O  0.04776984  0.70416759  0.77883692    -0.71700
O479        O  0.45416834  0.69662333  0.78379936    -0.71600
O480        O  0.44296095  0.79573142  0.72216245    -0.71700
O481        O  0.44796630  0.69207966  0.72317571    -0.71600
O482        O  0.44996395  0.79884806  0.78262190    -0.71800
V483        V  0.03938660  0.75046857  0.74646350     1.35200
V484        V  0.45040568  0.74577300  0.75275658     1.35200
C485        C  0.49423699  0.81940950  0.78902181     0.77700
C486        C  0.99388018  0.67501613  0.71187781     0.77700
C487        C  0.98775643  0.81693415  0.70819738     0.77600
C488        C  0.49961028  0.68212214  0.79350637     0.77500
C489        C  0.99763070  0.99573553  0.62757710    -0.02300
C490        C  0.50636901  0.49957794  0.86934790    -0.02300
O491        O  0.19836768  0.96778196  0.97286318    -0.71600
O492        O  0.29818487  0.95872802  0.52930131    -0.71800
O493        O  0.19155003  0.97017297  0.53345336    -0.71700
O494        O  0.30667515  0.95778529  0.96979094    -0.71700
O495        O  0.30790187  0.53627697  0.96834182    -0.71600
O496        O  0.20040760  0.55109520  0.53655193    -0.71700
O497        O  0.30766864  0.54154536  0.52992808    -0.71600
O498        O  0.19991551  0.54732959  0.97362953    -0.71800
V499        V  0.25392575  0.96695395  0.00172747     1.35200
V500        V  0.24942298  0.54352679  0.50267840     1.35200
C501        C  0.18199561  0.00939975  0.96224573     0.77700
C502        C  0.32120659  0.99795118  0.53890523     0.77700
C503        C  0.18055950  0.01297789  0.54577129     0.77600
C504        C  0.32678827  0.99618059  0.95736773     0.77500
C505        C  0.14190923  0.96788065  0.91782419    -0.05600
C506        C  0.14109579  0.00944751  0.93793953     0.00300
C507        C  0.10121072  0.54691596  0.93474496    -0.08200
C508        C  0.06495762  0.54249000  0.91098710    -0.05600
C509        C  0.06164963  0.99986217  0.89148878     0.00300
C510        C  0.10435101  0.96142756  0.89441050    -0.08100
C511        C  0.11117814  0.91043917  0.87721817     0.62200
H512        H  0.17285475  0.93909423  0.92129187     0.12900
H513        H  0.03376342  0.57157956  0.90941264     0.12900
C514        C  0.09712611  0.59322174  0.95563148     0.62500
F515        F  0.10049344  0.37366416  0.88458713    -0.22700
F516        F  0.17932543  0.40904297  0.87213173    -0.20000
F517        F  0.10522884  0.91417888  0.84662800    -0.19700
F518        F  0.09010750  0.57780350  0.98502074    -0.19800
F519        F  0.14350994  0.12308175  0.95109015    -0.20100
F520        F  0.05304691  0.12480088  0.95034051    -0.22700
C521        C  0.46286731  0.97462340  0.91798956    -0.05600
C522        C  0.45632288  0.99627789  0.88886583     0.00300
C523        C  0.39687053  0.50302807  0.88344359    -0.08200
C524        C  0.35670778  0.50551275  0.90679889    -0.05600
C525        C  0.36963293  0.99068240  0.93329564     0.00300
C526        C  0.42008019  0.96777500  0.93879626    -0.08100
C527        C  0.42804523  0.93398732  0.96570920     0.62200
H528        H  0.50133199  0.95834663  0.92400490     0.12900
H529        H  0.31602889  0.51886233  0.90195601     0.12900
C530        C  0.37414947  0.50768432  0.85207814     0.63500
F531        F  0.48124272  0.91715154  0.96801249    -0.22700
F532        F  0.39582201  0.89194610  0.96285031    -0.20000
F533        F  0.41054379  0.45283252  0.99364178    -0.19700
F534        F  0.39476388  0.95282583  0.83539433    -0.19800
F535        F  0.41207846  0.50148452  0.82935138    -0.20100
F536        F  0.34882381  0.55446162  0.84921565    -0.22700
C537        C  0.06501622  0.54780318  0.60242055    -0.05600
C538        C  0.05711522  0.00398503  0.61501331     0.00300
C539        C  0.10453814  0.97131911  0.61643976    -0.08200
C540        C  0.14416387  0.97509498  0.59303510    -0.05600
C541        C  0.14500224  0.01643540  0.57343976     0.00300
C542        C  0.11106169  0.55683968  0.58414256    -0.08100
C543        C  0.12053183  0.60962179  0.57239151     0.62200
H544        H  0.03347048  0.57669853  0.60363097     0.12900
H545        H  0.17563453  0.94596232  0.59056098     0.12900
C546        C  0.12166936  0.93708047  0.64212663     0.62500
F547        F  0.11157268  0.10850022  0.53663967    -0.22700
F548        F  0.17001910  0.12678002  0.57335912    -0.20000
F549        F  0.08525633  0.64510450  0.58600459    -0.19700
F550        F  0.12736663  0.88732034  0.63202439    -0.19800
F551        F  0.08712780  0.43581581  0.66977041    -0.20100
F552        F  0.17100928  0.45312801  0.65570919    -0.22700
C553        C  0.41719590  0.50812740  0.55260626    -0.05600
C554        C  0.36450860  0.99383385  0.56105692     0.00300
C555        C  0.35665846  0.97369294  0.58998155    -0.08200
C556        C  0.40054843  0.97337197  0.60976982    -0.05600
C557        C  0.45409939  0.98675795  0.60078909     0.00300
C558        C  0.46310508  0.49638507  0.56933085    -0.08100
C559        C  0.51250235  0.48665248  0.54860171     0.62200
H560        H  0.42237075  0.52144938  0.52974979     0.12900
H561        H  0.39187732  0.96470672  0.63299483     0.12900
C562        C  0.30103855  0.95750639  0.60085984     0.62500
F563        F  0.53013175  0.03541113  0.53956399    -0.22700
F564        F  0.99644848  0.95503116  0.52516625    -0.20000
F565        F  0.05282352  0.45807528  0.56363272    -0.19700
F566        F  0.28386415  0.91744566  0.58317748    -0.19800
F567        F  0.26790258  0.51130240  0.60182250    -0.20100
F568        F  0.30153248  0.45695931  0.63515354    -0.22700
C569        C  0.46001611  0.94315282  0.67422252    -0.05600
C570        C  0.98953893  0.94442213  0.64608329     0.00300
C571        C  0.00190149  0.89274546  0.63575828    -0.08200
C572        C  0.00489010  0.85382691  0.65742916    -0.05600
C573        C  0.98288893  0.85984194  0.68660995     0.00300
C574        C  0.45179618  0.90141092  0.69323479    -0.08100
C575        C  0.41016457  0.90590863  0.71904214     0.62200
H576        H  0.43933510  0.97820441  0.68067494     0.12900
H577        H  0.02167522  0.81676547  0.65104359     0.12900
C578        C  0.00720886  0.87432848  0.60293441     0.62500
F579        F  0.38642069  0.95388659  0.72143640    -0.22700
F580        F  0.43389138  0.89558339  0.74609039    -0.20000
F581        F  0.36939828  0.87168347  0.71412833    -0.19700
F582        F  0.96806045  0.89610334  0.58554840    -0.19800
F583        F  0.99951683  0.82249006  0.60045052    -0.20100
F584        F  0.05799180  0.88301892  0.59108173    -0.22700
C585        C  0.45448446  0.62567843  0.66921720    -0.05600
C586        C  0.99245790  0.62857730  0.69195091     0.00300
C587        C  0.02820211  0.58673203  0.69490556    -0.08200
C588        C  0.02355717  0.54452230  0.67529688    -0.05600
C589        C  0.98674808  0.54126216  0.65113251     0.00300
C590        C  0.45363925  0.58673735  0.64665370    -0.08100
C591        C  0.41489379  0.59854073  0.62117915     0.62200
H592        H  0.42618729  0.65753140  0.66879586     0.12900
H593        H  0.05157750  0.51364873  0.67810214     0.12900
C594        C  0.07117925  0.58603572  0.71892435     0.62500
F595        F  0.39933413  0.64933986  0.62099293    -0.22700
F596        F  0.36778564  0.57205639  0.62496755    -0.20000
F597        F  0.43883461  0.58934988  0.59330852    -0.19700
F598        F  0.04761804  0.59787299  0.74683913    -0.19800
F599        F  0.11045473  0.62102141  0.71219721    -0.20100
F600        F  0.09667881  0.53899083  0.72079911    -0.22700
C601        C  0.51056555  0.90996001  0.79497012    -0.05600
C602        C  0.49588461  0.86512959  0.80855916     0.00300
C603        C  0.98640557  0.86658766  0.83880521    -0.08200
C604        C  0.99224969  0.91050341  0.85671445    -0.05600
C605        C  0.50589874  0.95713926  0.84343693     0.00300
C606        C  0.50911296  0.95716050  0.81050117    -0.08100
C607        C  0.01402752  0.00359082  0.79148765     0.62200
H608        H  0.52128116  0.90780268  0.77110878     0.12900
H609        H  0.98313937  0.90702016  0.88036199     0.12900
C610        C  0.46335290  0.81871450  0.85495487     0.62500
F611        F  0.06486200  0.02260283  0.78614078    -0.22700
F612        F  0.98789757  0.54228212  0.79727557    -0.20000
F613        F  0.50175119  0.48487189  0.76181642    -0.19700
F614        F  0.99718674  0.77889208  0.84834432    -0.19800
F615        F  0.41330084  0.80826599  0.84324851    -0.20100
F616        F  0.45643168  0.82595072  0.88585839    -0.22700
C617        C  0.46773489  0.58980631  0.85775547    -0.05600
C618        C  0.51142559  0.55436069  0.85479156     0.00300
C619        C  0.06828734  0.57911646  0.83723521    -0.08200
C620        C  0.06152802  0.62212281  0.81885758    -0.05600
C621        C  0.50398634  0.64294352  0.81780891     0.00300
C622        C  0.46118016  0.63121796  0.83836460    -0.08100
C623        C  0.40801291  0.66121638  0.83995034     0.62200
H624        H  0.43724263  0.58504733  0.87495605     0.12900
H625        H  0.09534165  0.63533990  0.80539047     0.12900
C626        C  0.12639774  0.55871337  0.84003857     0.62500
F627        F  0.37658444  0.64990231  0.86514885    -0.22700
F628        F  0.37832942  0.65063693  0.81461170    -0.20000
F629        F  0.41811219  0.71222354  0.84155116    -0.19700
F630        F  0.12982441  0.50781124  0.83350758    -0.19800
F631        F  0.14467578  0.56800448  0.86875166    -0.20100
F632        F  0.16233344  0.58171433  0.82035763    -0.22700
O633        O  0.53782794  0.30633715  0.27432715    -0.71600
O634        O  0.53837444  0.19310047  0.21998585    -0.71800
O635        O  0.53514073  0.29608995  0.21394719    -0.71700
O636        O  0.53985578  0.20457685  0.28012591    -0.71700
O637        O  0.95674551  0.20644594  0.28059712    -0.71600
O638        O  0.94800792  0.30537934  0.21939884    -0.71700
O639        O  0.95178244  0.20191899  0.21998575    -0.71600
O640        O  0.95418904  0.30849526  0.27985259    -0.71800
V641        V  0.53609712  0.24998399  0.24703568     1.35200
V642        V  0.95433939  0.25553120  0.24978353     1.35200
C643        C  0.99846922  0.32892096  0.28656796     0.77700
C644        C  0.49483528  0.17352087  0.21154127     0.77700
C645        C  0.49035269  0.31541206  0.20592112     0.77600
C646        C  0.00161325  0.19202369  0.29091608     0.77500
C647        C  0.50795576  0.49635717  0.12641574    -0.02300
C648        C  0.00317078  0.01143726  0.36799675    -0.02300
O649        O  0.69035972  0.46589366  0.47201376    -0.71600
O650        O  0.81008665  0.46345598  0.02819025    -0.71800
O651        O  0.70303930  0.47102078  0.03170746    -0.71700
O652        O  0.79920202  0.45707626  0.46845571    -0.71700
O653        O  0.79973176  0.04227861  0.46751735    -0.71600
O654        O  0.70610387  0.04558584  0.03285416    -0.71700
O655        O  0.81330682  0.03973643  0.02660666    -0.71600
O656        O  0.69082559  0.04888277  0.47320635    -0.71800
V657        V  0.74638283  0.46433322  0.50073669     1.35200
V658        V  0.75526142  0.03857192  0.99924468     1.35200
C659        C  0.67311787  0.50775669  0.46208509     0.77700
C660        C  0.83138876  0.50410716  0.03699489     0.77700
C661        C  0.69048664  0.51403978  0.04339270     0.77600
C662        C  0.81893236  0.49627584  0.45662323     0.77500
C663        C  0.63062370  0.46641131  0.41801654    -0.05600
C664        C  0.63115989  0.50816886  0.43803173     0.00300
C665        C  0.58880742  0.04629298  0.43614850    -0.08200
C666        C  0.55165685  0.04220010  0.41265568    -0.05600
C667        C  0.55031788  0.49947286  0.39193415     0.00300
C668        C  0.59177029  0.46007019  0.39519312    -0.08100
C669        C  0.59571934  0.40877015  0.37831827     0.62200
H670        H  0.66143816  0.43739538  0.42113179     0.12900
H671        H  0.52016210  0.07115701  0.41147631     0.12900
C672        C  0.58261617  0.08991945  0.45886259     0.62500
F673        F  0.56878402  0.87674470  0.38644414    -0.22700
F674        F  0.65530804  0.89389114  0.37784120    -0.20000
F675        F  0.59398347  0.41356412  0.34754008    -0.19700
F676        F  0.58054866  0.07093952  0.48766359    -0.19800
F677        F  0.63521443  0.62113099  0.45160371    -0.20100
F678        F  0.54483047  0.62474477  0.45034303    -0.22700
C679        C  0.95682433  0.47993862  0.41827954    -0.05600
C680        C  0.95115374  0.50314004  0.38944451     0.00300
C681        C  0.89314861  0.01496950  0.38209249    -0.08200
C682        C  0.85225729  0.01596596  0.40521999    -0.05600
C683        C  0.86255901  0.49267545  0.43268956     0.00300
C684        C  0.91338150  0.47067701  0.43832580    -0.08100
C685        C  0.92117179  0.43545778  0.46466079     0.62200
H686        H  0.99527051  0.46400054  0.42455110     0.12900
H687        H  0.81128801  0.02806476  0.40009681     0.12900
C688        C  0.87088108  0.01943272  0.35061296     0.63500
F689        F  0.97425540  0.41813586  0.46667510    -0.22700
F690        F  0.88879851  0.39366135  0.46099480    -0.20000
F691        F  0.90281577  0.95871737  0.49160628    -0.19700
F692        F  0.89468474  0.46499013  0.33314730    -0.19800
F693        F  0.84192254  0.06451483  0.34831026    -0.20100
F694        F  0.83599472  0.97987068  0.34557973    -0.22700
C695        C  0.57235209  0.04519984  0.09952404    -0.05600
C696        C  0.56739755  0.50557119  0.11361800     0.00300
C697        C  0.61521147  0.47349256  0.11495169    -0.08200
C698        C  0.65430524  0.47681455  0.09116803    -0.05600
C699        C  0.65472950  0.51772788  0.07124182     0.00300
C700        C  0.61624943  0.05236495  0.07940566    -0.08100
C701        C  0.62278672  0.10362411  0.06470738     0.62200
H702        H  0.54253040  0.07517466  0.10183110     0.12900
H703        H  0.68597586  0.44789715  0.08882470     0.12900
C704        C  0.63346681  0.44086291  0.14110052     0.62500
F705        F  0.62117177  0.61053895  0.03484259    -0.22700
F706        F  0.68067290  0.62760485  0.07129754    -0.20000
F707        F  0.58495755  0.13920617  0.07575966    -0.19700
F708        F  0.64259642  0.39120391  0.13144481    -0.19800
F709        F  0.59413868  0.93546233  0.16760229    -0.20100
F710        F  0.67832454  0.94986172  0.15265353    -0.22700
C711        C  0.92266799  0.01211777  0.05067047    -0.05600
C712        C  0.87372157  0.50307861  0.05991740     0.00300
C713        C  0.86457432  0.48636020  0.08956135    -0.08200
C714        C  0.90809171  0.48631165  0.10958570    -0.05600
C715        C  0.96214137  0.49772431  0.10062097     0.00300
C716        C  0.96921555  0.00342824  0.06754950    -0.08100
C717        C  0.02001375  0.00189486  0.04733221     0.62200
H718        H  0.92671902  0.02586563  0.02783772     0.12900
H719        H  0.89891440  0.47939645  0.13300251     0.12900
C720        C  0.80813800  0.47320632  0.10074919     0.62500
F721        F  0.04050890  0.54098233  0.03849396    -0.22700
F722        F  0.50599552  0.46362301  0.02235872    -0.20000
F723        F  0.55756538  0.95073907  0.06382780    -0.19700
F724        F  0.79032971  0.43128210  0.08495030    -0.19800
F725        F  0.77310647  0.01116362  0.09935353    -0.20100
F726        F  0.80907146  0.95997493  0.13368748    -0.22700
C727        C  0.96720984  0.45291439  0.17339669    -0.05600
C728        C  0.50085538  0.44463196  0.14482314     0.00300
C729        C  0.51352264  0.39298531  0.13430686    -0.08200
C730        C  0.51358547  0.35323243  0.15566697    -0.05600
C731        C  0.48871501  0.35867582  0.18426771     0.00300
C732        C  0.95899236  0.41101484  0.19210269    -0.08100
C733        C  0.91911900  0.41583330  0.21873248     0.62200
H734        H  0.94692138  0.48799071  0.18017957     0.12900
H735        H  0.53016888  0.31605147  0.14942976     0.12900
C736        C  0.52208473  0.37578973  0.10134636     0.62500
F737        F  0.89796769  0.46462127  0.22254354    -0.22700
F738        F  0.94407813  0.40296729  0.24501112    -0.20000
F739        F  0.87638647  0.38370023  0.21404371    -0.19700
F740        F  0.48245111  0.39582082  0.08354636    -0.19800
F741        F  0.51853171  0.32359966  0.09802415    -0.20100
F742        F  0.57244194  0.38807980  0.09035253    -0.22700
C743        C  0.96043439  0.13453580  0.16560671    -0.05600
C744        C  0.49565144  0.12710667  0.19158521     0.00300
C745        C  0.53273106  0.08618177  0.19452073    -0.08200
C746        C  0.53070594  0.04465782  0.17410786    -0.05600
C747        C  0.49533122  0.04176309  0.14929801     0.00300
C748        C  0.96129291  0.09535937  0.14305819    -0.08100
C749        C  0.92853570  0.10833261  0.11517411     0.62200
H750        H  0.93306595  0.16691560  0.16402931     0.12900
H751        H  0.55891694  0.01395978  0.17707181     0.12900
C752        C  0.57355063  0.08526326  0.21966906     0.62500
F753        F  0.91449155  0.15944769  0.11448635    -0.22700
F754        F  0.88053342  0.08271231  0.11528252    -0.20000
F755        F  0.95788913  0.09898334  0.08885590    -0.19700
F756        F  0.54722544  0.09479339  0.24713324    -0.19800
F757        F  0.61212279  0.12172836  0.21482851    -0.20100
F758        F  0.60035564  0.03878920  0.22123649    -0.22700
C759        C  0.01716391  0.41923416  0.29516585    -0.05600
C760        C  0.99992669  0.37382864  0.30715097     0.00300
C761        C  0.47170811  0.36844874  0.33631182    -0.08200
C762        C  0.47603166  0.41217584  0.35461407    -0.05600
C763        C  0.00358983  0.46502251  0.34395735     0.00300
C764        C  0.01137184  0.46591249  0.31120976    -0.08100
C765        C  0.51541180  0.50436572  0.29085453     0.62200
H766        H  0.03083521  0.41858749  0.27171107     0.12900
H767        H  0.46283618  0.40854216  0.37768466     0.12900
C768        C  0.95936174  0.32615892  0.35106997     0.62500
F769        F  0.56805902  0.52049495  0.28856126    -0.22700
F770        F  0.47965369  0.04256273  0.29683013    -0.20000
F771        F  0.00114800  0.99526962  0.26041938    -0.19700
F772        F  0.48116800  0.28089951  0.34602659    -0.19800
F773        F  0.91069243  0.31721636  0.33734928    -0.20100
F774        F  0.94904702  0.33155797  0.38182808    -0.22700
C775        C  0.96567858  0.10118462  0.35499752    -0.05600
C776        C  0.00946784  0.06576257  0.35302919     0.00300
C777        C  0.55450810  0.07994668  0.33913195    -0.08200
C778        C  0.54895594  0.12257152  0.32030816    -0.05600
C779        C  0.00441777  0.15352309  0.31548340     0.00300
C780        C  0.96016893  0.14189494  0.33506755    -0.08100
C781        C  0.90624758  0.17061829  0.33467618     0.62200
H782        H  0.93389607  0.09645827  0.37144252     0.12900
H783        H  0.58384495  0.13602851  0.30785063     0.12900
C784        C  0.61259964  0.06018495  0.34314176     0.62500
F785        F  0.87258694  0.15923135  0.35893352    -0.22700
F786        F  0.87960282  0.15865103  0.30846566    -0.20000
F787        F  0.91471753  0.22187260  0.33616664    -0.19700
F788        F  0.61668146  0.00879741  0.33818563    -0.19800
F789        F  0.62971923  0.07230813  0.37173560    -0.20100
F790        F  0.64910689  0.08156901  0.32309708    -0.22700
O791        O  0.53910208  0.30223815  0.77336647    -0.71600
O792        O  0.53200626  0.19101894  0.71818776    -0.71800
O793        O  0.52948190  0.29363001  0.71342344    -0.71700
O794        O  0.54037417  0.20065467  0.77831439    -0.71700
O795        O  0.95708590  0.19976976  0.78575060    -0.71600
O796        O  0.94353392  0.29750442  0.72386778    -0.71700
O797        O  0.94650988  0.19387610  0.72525630    -0.71600
O798        O  0.95520010  0.30166669  0.78391436    -0.71800
V799        V  0.53349830  0.24678026  0.74582717     1.35200
V800        V  0.95217710  0.24811063  0.75446866     1.35200
C801        C  0.00043676  0.32137353  0.78924634     0.77700
C802        C  0.48742177  0.17212492  0.71096269     0.77700
C803        C  0.48406569  0.31346398  0.70704775     0.77600
C804        C  0.00293683  0.18479129  0.79450769     0.77500
C805        C  0.49937406  0.49298646  0.62736552    -0.02300
C806        C  0.01157066  0.00299076  0.86946287    -0.02300
O807        O  0.69899099  0.46527437  0.97037116    -0.71600
O808        O  0.80151563  0.45907221  0.52962325    -0.71800
O809        O  0.69460011  0.46880368  0.53342215    -0.71700
O810        O  0.80804855  0.45782262  0.96706043    -0.71700
O811        O  0.80567593  0.03470095  0.96589763    -0.71600
O812        O  0.69933734  0.05207126  0.53443692    -0.71700
O813        O  0.80682622  0.04554489  0.52853809    -0.71600
O814        O  0.69698455  0.04064687  0.97185328    -0.71800
V815        V  0.75499396  0.46599817  0.99913799     1.35200
V816        V  0.74897985  0.04562249  0.50085500     1.35200
C817        C  0.68080415  0.50653183  0.96007158     0.77700
C818        C  0.82373737  0.49868548  0.53926334     0.77700
C819        C  0.68282172  0.51158551  0.54568681     0.77600
C820        C  0.82736723  0.49652913  0.95449955     0.77500
C821        C  0.63932296  0.46537642  0.91585460    -0.05600
C822        C  0.63815175  0.50591239  0.93666326     0.00300
C823        C  0.59575793  0.03873515  0.93538184    -0.08200
C824        C  0.56053782  0.03734298  0.91102646    -0.05600
C825        C  0.55648804  0.49631839  0.89139198     0.00300
C826        C  0.59829891  0.45721513  0.89454581    -0.08100
C827        C  0.59972106  0.40426686  0.87974389     0.62200
H828        H  0.67239375  0.43818221  0.91772885     0.12900
H829        H  0.52933539  0.06662248  0.91028307     0.12900
C830        C  0.58591302  0.07840436  0.96022771     0.62500
F831        F  0.59356651  0.87042962  0.88145612    -0.22700
F832        F  0.67240841  0.90471016  0.86792118    -0.20000
F833        F  0.59846456  0.40609920  0.84878552    -0.19700
F834        F  0.58036608  0.05399394  0.98728480    -0.19800
F835        F  0.62851745  0.61707833  0.95841630    -0.20100
F836        F  0.53846757  0.60914930  0.95748650    -0.22700
C837        C  0.96658687  0.47783891  0.91743046    -0.05600
C838        C  0.96146055  0.49845830  0.88794980     0.00300
C839        C  0.90126524  0.00513270  0.88162684    -0.08200
C840        C  0.86014089  0.00730176  0.90467932    -0.05600
C841        C  0.87185442  0.49176158  0.93095972     0.00300
C842        C  0.92270883  0.47047350  0.93753783    -0.08100
C843        C  0.93026027  0.43823733  0.96516544     0.62200
H844        H  0.00505209  0.46290857  0.92441182     0.12900
H845        H  0.81951253  0.02046642  0.89974942     0.12900
C846        C  0.88105876  0.00609328  0.84916092     0.63500
F847        F  0.98341929  0.42170682  0.96811978    -0.22700
F848        F  0.89829679  0.39590127  0.96299102    -0.20000
F849        F  0.91195170  0.95837868  0.99266879    -0.19700
F850        F  0.90439281  0.45528352  0.83271142    -0.19800
F851        F  0.89205728  0.05079375  0.83519676    -0.20100
F852        F  0.82533797  0.00084267  0.84849369    -0.22700
C853        C  0.56439936  0.04802158  0.60063774    -0.05600
C854        C  0.55861886  0.50189373  0.61464950     0.00300
C855        C  0.60672338  0.47022237  0.61652071    -0.08200
C856        C  0.64629043  0.47392401  0.59307744    -0.05600
C857        C  0.64688848  0.51500847  0.57332504     0.00300
C858        C  0.61004515  0.05707040  0.58193453    -0.08100
C859        C  0.61909183  0.10989513  0.57000057     0.62200
H860        H  0.53343479  0.07725167  0.60248614     0.12900
H861        H  0.67805148  0.44504622  0.59078031     0.12900
C862        C  0.62440793  0.43678959  0.64249821     0.62500
F863        F  0.61496719  0.60844155  0.53700369    -0.22700
F864        F  0.67154325  0.62530402  0.57486303    -0.20000
F865        F  0.58316003  0.14522814  0.58319091    -0.19700
F866        F  0.63321739  0.38730077  0.63244395    -0.19800
F867        F  0.58745937  0.93662333  0.66763480    -0.20100
F868        F  0.67124807  0.95263256  0.65283194    -0.22700
C869        C  0.91702609  0.01045118  0.55209499    -0.05600
C870        C  0.86650473  0.49520898  0.56202755     0.00300
C871        C  0.85826139  0.47448543  0.59087979    -0.08200
C872        C  0.90161145  0.47430638  0.61107600    -0.05600
C873        C  0.95519224  0.48810912  0.60262756     0.00300
C874        C  0.96216125  0.99821445  0.56935929    -0.08100
C875        C  0.01150853  0.98583101  0.54905255     0.62200
H876        H  0.92304452  0.02120170  0.52878646     0.12900
H877        H  0.89262322  0.46505977  0.63420612     0.12900
C878        C  0.80304972  0.45637375  0.60117823     0.62500
F879        F  0.03429336  0.53153621  0.54060746    -0.22700
F880        F  0.49803606  0.45744386  0.52391493    -0.20000
F881        F  0.55236215  0.96098112  0.56063180    -0.19700
F882        F  0.78775137  0.41612108  0.58306080    -0.19800
F883        F  0.76628626  0.02258011  0.60002784    -0.20100
F884        F  0.79786433  0.97151781  0.63570521    -0.22700
C885        C  0.96127677  0.44444215  0.67621796    -0.05600
C886        C  0.49213514  0.44171110  0.64588100     0.00300
C887        C  0.50415713  0.39004758  0.63530461    -0.08200
C888        C  0.50429736  0.35051243  0.65666472    -0.05600
C889        C  0.48088800  0.35649574  0.68554398     0.00300
C890        C  0.95327179  0.40290885  0.69531584    -0.08100
C891        C  0.91462697  0.40856506  0.72247448     0.62200
H892        H  0.94160185  0.47980248  0.68301246     0.12900
H893        H  0.52038363  0.31316405  0.65039356     0.12900
C894        C  0.51290741  0.37271231  0.60237868     0.62500
F895        F  0.89306544  0.45728773  0.72578020    -0.22700
F896        F  0.94102270  0.39718463  0.74856832    -0.20000
F897        F  0.87201097  0.37584363  0.71901109    -0.19700
F898        F  0.47326237  0.39239274  0.58445296    -0.19800
F899        F  0.50976432  0.32048001  0.59913290    -0.20100
F900        F  0.56322461  0.38521919  0.59147066    -0.22700
C901        C  0.95141102  0.12721056  0.67016922    -0.05600
C902        C  0.48644675  0.12608095  0.69079286     0.00300
C903        C  0.52229211  0.08448465  0.69400350    -0.08200
C904        C  0.51990374  0.04313391  0.67365924    -0.05600
C905        C  0.48465218  0.04031190  0.64881689     0.00300
C906        C  0.95300216  0.08986754  0.64659435    -0.08100
C907        C  0.91962051  0.10539829  0.61942264     0.62200
H908        H  0.92294785  0.15898956  0.66956655     0.12900
H909        H  0.54797249  0.01267639  0.67663279     0.12900
C910        C  0.56306604  0.08289715  0.71916557     0.62500
F911        F  0.91257528  0.15765437  0.61845801    -0.22700
F912        F  0.86853925  0.08535719  0.62158588    -0.20000
F913        F  0.94448753  0.09251139  0.59229627    -0.19700
F914        F  0.53715944  0.09437224  0.74650627    -0.19800
F915        F  0.60322641  0.11763824  0.71379277    -0.20100
F916        F  0.58780869  0.03558166  0.72136739    -0.22700
C917        C  0.02087521  0.41124870  0.79521090    -0.05600
C918        C  0.00454633  0.36690576  0.80879022     0.00300
C919        C  0.47798796  0.36445131  0.83694832    -0.08200
C920        C  0.48177594  0.40858928  0.85476647    -0.05600
C921        C  0.01436613  0.45917340  0.84346850     0.00300
C922        C  0.01937839  0.45868740  0.81052112    -0.08100
C923        C  0.51863637  0.49967574  0.79021887     0.62200
H924        H  0.03198512  0.40864765  0.77140405     0.12900
H925        H  0.46792694  0.40536389  0.87770290     0.12900
C926        C  0.97142360  0.32102147  0.85516123     0.62500
F927        F  0.57089690  0.51624603  0.78632586    -0.22700
F928        F  0.47730398  0.04097418  0.79813726    -0.20000
F929        F  0.99469851  0.98892762  0.76361769    -0.19700
F930        F  0.48930695  0.27707065  0.84663545    -0.19800
F931        F  0.92095662  0.31139937  0.84374169    -0.20100
F932        F  0.96531341  0.32800465  0.88611411    -0.22700
C933        C  0.97532889  0.09447424  0.86013315    -0.05600
C934        C  0.01720951  0.05775490  0.85516276     0.00300
C935        C  0.56096702  0.07704743  0.83705394    -0.08200
C936        C  0.55365463  0.11960054  0.81842096    -0.05600
C937        C  0.00846346  0.14630399  0.81890823     0.00300
C938        C  0.96724306  0.13547408  0.84064048    -0.08100
C939        C  0.91388153  0.16511664  0.84308984     0.62200
H940        H  0.94596452  0.08943354  0.87804088     0.12900
H941        H  0.58711969  0.13239579  0.80453905     0.12900
C942        C  0.61922407  0.05704201  0.83956251     0.62500
F943        F  0.88258281  0.15156801  0.86790751    -0.22700
F944        F  0.88386158  0.15639425  0.81764328    -0.20000
F945        F  0.92382773  0.21597412  0.84602835    -0.19700
F946        F  0.62290936  0.00628108  0.83268659    -0.19800
F947        F  0.63766877  0.06611751  0.86826774    -0.20100
F948        F  0.65483013  0.08055373  0.81992742    -0.22700
O949        O  0.53471979  0.80478996  0.27733935    -0.71600
O950        O  0.53571958  0.69292529  0.22232195    -0.71800
O951        O  0.53072872  0.79565664  0.21721598    -0.71700
O952        O  0.53837617  0.70339088  0.28263995    -0.71700
O953        O  0.95501020  0.70666990  0.28251577    -0.71600
O954        O  0.94695115  0.80590138  0.22066167    -0.71700
O955        O  0.95032996  0.70219048  0.22169283    -0.71600
O956        O  0.95243402  0.80868621  0.28122590    -0.71800
V957        V  0.53316918  0.74907173  0.24985015     1.35200
V958        V  0.95281744  0.75581375  0.25133328     1.35200
C959        C  0.99662285  0.82916745  0.28788395     0.77700
C960        C  0.49232282  0.67370093  0.21340496     0.77700
C961        C  0.48558352  0.81502529  0.20986226     0.77600
C962        C  0.99999857  0.69224698  0.29285298     0.77500
C963        C  0.50458624  0.99170959  0.12806655    -0.02300
C964        C  0.00564516  0.50959284  0.36852130    -0.02300
O965        O  0.68949944  0.96676079  0.47280345    -0.71600
O966        O  0.80689170  0.95800541  0.03028219    -0.71800
O967        O  0.69964505  0.96381487  0.03324219    -0.71700
O968        O  0.79874679  0.96013520  0.46969513    -0.71700
O969        O  0.80264556  0.53916549  0.46687356    -0.71600
O970        O  0.70948531  0.55275920  0.03076982    -0.71700
O971        O  0.81712940  0.54516638  0.02488639    -0.71600
O972        O  0.69391061  0.54787746  0.47245559    -0.71800
V973        V  0.74544567  0.96677470  0.50174846     1.35200
V974        V  0.75925603  0.54471470  0.99720246     1.35200
C975        C  0.67111122  0.00829901  0.46290580     0.77700
C976        C  0.82813241  0.99893603  0.03873679     0.77700
C977        C  0.68715946  0.00664923  0.04515763     0.77600
C978        C  0.81753662  0.99955207  0.45768826     0.77500
C979        C  0.63087346  0.96784650  0.41794468    -0.05600
C980        C  0.62948279  0.00841205  0.43874945     0.00300
C981        C  0.59116513  0.54661945  0.43519730    -0.08200
C982        C  0.55147292  0.54080333  0.41319298    -0.05600
C983        C  0.55198281  0.00165406  0.39082470     0.00300
C984        C  0.59438420  0.96279965  0.39384727    -0.08100
C985        C  0.60298027  0.91317981  0.37538607     0.62200
H986        H  0.66162613  0.93880077  0.42124150     0.12900
H987        H  0.51978807  0.56961122  0.41238804     0.12900
C988        C  0.58888296  0.59320317  0.45579908     0.62500
F989        F  0.55518123  0.37786406  0.38868849    -0.22700
F990        F  0.64413777  0.38315659  0.38329877    -0.20000
F991        F  0.59663102  0.91865468  0.34493056    -0.19700
F992        F  0.58464478  0.57805950  0.48533869    -0.19800
F993        F  0.62598747  0.12199249  0.45591471    -0.20100
F994        F  0.53555438  0.11824927  0.45498079    -0.22700
C995        C  0.95563083  0.98399660  0.41876947    -0.05600
C996        C  0.94943881  0.00705213  0.38991002     0.00300
C997        C  0.89504170  0.50959555  0.38073528    -0.08200
C998        C  0.85388097  0.51176709  0.40389084    -0.05600
C999        C  0.86131460  0.99644214  0.43379068     0.00300
C1000       C  0.91245303  0.97457150  0.43906703    -0.08100
C1001       C  0.92052010  0.93750626  0.46445519     0.62200
H1002       H  0.99400446  0.96745281  0.42461333     0.12900
H1003       H  0.81310856  0.52450390  0.39897634     0.12900
C1004       C  0.87511259  0.50793995  0.34824168     0.63500
F1005       F  0.97429881  0.92273046  0.46716613    -0.22700
F1006       F  0.89100302  0.89452846  0.45861838    -0.20000
F1007       F  0.90667948  0.46012530  0.49137071    -0.19700
F1008       F  0.90965545  0.01714523  0.32815938    -0.19800
F1009       F  0.88930173  0.54990949  0.33237727    -0.20100
F1010       F  0.81911513  0.50570334  0.34752957    -0.22700
C1011       C  0.57596992  0.55213920  0.09875091    -0.05600
C1012       C  0.56409007  0.99941399  0.11519137     0.00300
C1013       C  0.61156763  0.96687730  0.11673867    -0.08200
C1014       C  0.65116363  0.97007260  0.09316299    -0.05600
C1015       C  0.65128133  0.01039231  0.07277037     0.00300
C1016       C  0.62041154  0.55988283  0.07882923    -0.08100
C1017       C  0.62869033  0.61194842  0.06558441     0.62200
H1018       H  0.54620422  0.58218574  0.10147033     0.12900
H1019       H  0.68314295  0.94137647  0.09116962     0.12900
C1020       C  0.62864382  0.93359421  0.14284274     0.62500
F1021       F  0.61655104  0.09935277  0.03394972    -0.22700
F1022       F  0.67370757  0.12187324  0.07051735    -0.20000
F1023       F  0.59285289  0.64790291  0.07823418    -0.19700
F1024       F  0.63520514  0.88362102  0.13327754    -0.19800
F1025       F  0.59869564  0.44094816  0.16571444    -0.20100
F1026       F  0.68207648  0.45935909  0.15114499    -0.22700
C1027       C  0.92568326  0.51566321  0.05073681    -0.05600
C1028       C  0.87166026  0.99872945  0.06088753     0.00300
C1029       C  0.86428447  0.98387503  0.09094979    -0.08200
C1030       C  0.90885542  0.98587845  0.11020604    -0.05600
C1031       C  0.96258677  0.99689483  0.10005383     0.00300
C1032       C  0.97074691  0.50466310  0.06835384    -0.08100
C1033       C  0.02133714  0.49536111  0.04857216     0.62200
H1034       H  0.93197184  0.52885513  0.02792684     0.12900
H1035       H  0.90082394  0.98055265  0.13391275     0.12900
C1036       C  0.80855544  0.97067779  0.10323861     0.62500
F1037       F  0.03631806  0.05065660  0.04177503    -0.22700
F1038       F  0.50167961  0.94572263  0.02686960    -0.20000
F1039       F  0.55989939  0.46303814  0.06030592    -0.19700
F1040       F  0.78998369  0.92847021  0.08801613    -0.19800
F1041       F  0.77324931  0.51394589  0.09647828    -0.20100
F1042       F  0.80671712  0.46208917  0.13116018    -0.22700
C1043       C  0.97040803  0.95391213  0.17388728    -0.05600
C1044       C  0.49557020  0.94112824  0.14711122     0.00300
C1045       C  0.50764932  0.88901700  0.13749505    -0.08200
C1046       C  0.50871856  0.85081958  0.15961501    -0.05600
C1047       C  0.48331679  0.85749070  0.18790073     0.00300
C1048       C  0.96182988  0.91263670  0.19314859    -0.08100
C1049       C  0.92403031  0.91951209  0.22053722     0.62200
H1050       H  0.95171820  0.98963458  0.18080267     0.12900
H1051       H  0.52582210  0.81354933  0.15400717     0.12900
C1052       C  0.51343088  0.86920282  0.10496831     0.62500
F1053       F  0.90722169  0.96952688  0.22519438    -0.22700
F1054       F  0.94939057  0.90401786  0.24611815    -0.20000
F1055       F  0.87851157  0.89068315  0.21646835    -0.19700
F1056       F  0.47532045  0.89106175  0.08694155    -0.19800
F1057       F  0.50442247  0.81750419  0.10313229    -0.20100
F1058       F  0.56479449  0.87622571  0.09346072    -0.22700
C1059       C  0.95807089  0.63482078  0.16784345    -0.05600
C1060       C  0.49401473  0.62855114  0.19238454     0.00300
C1061       C  0.53053322  0.58730356  0.19545216    -0.08200
C1062       C  0.53154657  0.54775175  0.17362996    -0.05600
C1063       C  0.49744070  0.54557979  0.14826834     0.00300
C1064       C  0.95751187  0.59529671  0.14557441    -0.08100
C1065       C  0.92003611  0.60655999  0.11944297     0.62200
H1066       H  0.93068148  0.66726303  0.16666444     0.12900
H1067       H  0.56038901  0.51747935  0.17639722     0.12900
C1068       C  0.56714804  0.58375608  0.22242800     0.62500
F1069       F  0.90342164  0.65706241  0.11910176    -0.22700
F1070       F  0.87338199  0.57912489  0.12226351    -0.20000
F1071       F  0.94576851  0.59785588  0.09198429    -0.19700
F1072       F  0.53718139  0.59367761  0.24870416    -0.19800
F1073       F  0.60807659  0.61855738  0.21996399    -0.20100
F1074       F  0.59093144  0.53600031  0.22459842    -0.22700
C1075       C  0.01828615  0.91856292  0.29609510    -0.05600
C1076       C  0.99759530  0.87438614  0.30799984     0.00300
C1077       C  0.47543727  0.86804155  0.33975316    -0.08200
C1078       C  0.48244696  0.91255865  0.35681762    -0.05600
C1079       C  0.99962914  0.96667321  0.34355405     0.00300
C1080       C  0.01237370  0.96607567  0.31110114    -0.08100
C1081       C  0.51518001  0.00308041  0.29016762     0.62200
H1082       H  0.03538215  0.91629996  0.27330921     0.12900
H1083       H  0.47493016  0.90964727  0.38061972     0.12900
C1084       C  0.95347798  0.82817611  0.35157972     0.62500
F1085       F  0.56788524  0.01908624  0.28919251    -0.22700
F1086       F  0.48033094  0.54364950  0.29855568    -0.20000
F1087       F  0.99261687  0.49749035  0.26191511    -0.19700
F1088       F  0.48770786  0.78099842  0.35057295    -0.19800
F1089       F  0.90555969  0.81713769  0.33761931    -0.20100
F1090       F  0.94233997  0.83443625  0.38222402    -0.22700
C1091       C  0.96784613  0.60053963  0.35777807    -0.05600
C1092       C  0.01117552  0.56478667  0.35439021     0.00300
C1093       C  0.55393479  0.57771008  0.34076009    -0.08200
C1094       C  0.54870946  0.62101128  0.32250625    -0.05600
C1095       C  0.00370391  0.65333823  0.31740057     0.00300
C1096       C  0.96064123  0.64122049  0.33774702    -0.08100
C1097       C  0.90596133  0.66857696  0.33764697     0.62200
H1098       H  0.93661966  0.59463210  0.37454578     0.12900
H1099       H  0.58343736  0.63415796  0.30976857     0.12900
C1100       C  0.61160344  0.55611843  0.34370919     0.62500
F1101       F  0.87247233  0.65487988  0.36153035    -0.22700
F1102       F  0.87990553  0.65700805  0.31118944    -0.20000
F1103       F  0.91288204  0.72007936  0.33992103    -0.19700
F1104       F  0.61362473  0.50461019  0.33870164    -0.19800
F1105       F  0.63083351  0.56757623  0.37194135    -0.20100
F1106       F  0.64764736  0.57652894  0.32302619    -0.22700
O1107       O  0.53741409  0.80243900  0.77640067    -0.71600
O1108       O  0.53580952  0.69162370  0.72076564    -0.71800
O1109       O  0.53041653  0.79444181  0.71618174    -0.71700
O1110       O  0.54161932  0.70052697  0.78110516    -0.71700
O1111       O  0.96042833  0.70075261  0.78284918    -0.71600
O1112       O  0.94655531  0.79983495  0.72186045    -0.71700
O1113       O  0.95066433  0.69596177  0.72260159    -0.71600
O1114       O  0.95736365  0.80246121  0.78200375    -0.71800
V1115       V  0.53459841  0.74717535  0.74863966     1.35200
V1116       V  0.95539551  0.74973905  0.75206552     1.35200
C1117       C  0.00212357  0.82258657  0.78788052     0.77700
C1118       C  0.49194891  0.67208874  0.71286247     0.77700
C1119       C  0.48472052  0.81312155  0.70910924     0.77600
C1120       C  0.00619541  0.68614188  0.79185968     0.77500
C1121       C  0.49629798  0.99105675  0.62712579    -0.02300
C1122       C  0.01627319  0.50450985  0.86717993    -0.02300
O1123       O  0.69644004  0.95852599  0.97164392    -0.71600
O1124       O  0.80049055  0.96362085  0.53085438    -0.71800
O1125       O  0.69344347  0.97023503  0.53429788    -0.71700
O1126       O  0.80587683  0.95267316  0.96927995    -0.71700
O1127       O  0.81007978  0.53976800  0.96380229    -0.71600
O1128       O  0.70257519  0.55047258  0.53374094    -0.71700
O1129       O  0.81012909  0.54077220  0.52802539    -0.71600
O1130       O  0.70107597  0.54736808  0.96959499    -0.71800
V1131       V  0.75210341  0.95977354  0.00093165     1.35200
V1132       V  0.75210542  0.54303200  0.50021336     1.35200
C1133       C  0.67758488  0.99987220  0.96170459     0.77700
C1134       C  0.82156523  0.00415160  0.54006334     0.77700
C1135       C  0.68074191  0.01277854  0.54654930     0.77600
C1136       C  0.82429139  0.99185503  0.95686776     0.77500
C1137       C  0.63777009  0.96104964  0.91588141    -0.05600
C1138       C  0.63593934  0.00028795  0.93760914     0.00300
C1139       C  0.59513844  0.54174275  0.93578313    -0.08200
C1140       C  0.55686750  0.53717491  0.91297578    -0.05600
C1141       C  0.56086680  0.99803412  0.88849159     0.00300
C1142       C  0.60331449  0.95906697  0.89069292    -0.08100
C1143       C  0.61679692  0.91325647  0.86964572     0.62200
H1144       H  0.66818407  0.93135193  0.91854338     0.12900
H1145       H  0.52464423  0.56552243  0.91248855     0.12900
C1146       C  0.58709501  0.58266309  0.96005964     0.62500
F1147       F  0.55745471  0.37660018  0.89129033    -0.22700
F1148       F  0.64642512  0.37683731  0.88601998    -0.20000
F1149       F  0.60199231  0.91820213  0.84023970    -0.19700
F1150       F  0.58664912  0.56017843  0.98789720    -0.19800
F1151       F  0.62860142  0.11144405  0.96135487    -0.20100
F1152       F  0.53898218  0.10690015  0.95626612    -0.22700
C1153       C  0.96297245  0.97534417  0.91940649    -0.05600
C1154       C  0.95727149  0.99770208  0.89040440     0.00300
C1155       C  0.90555868  0.50410901  0.87868170    -0.08200
C1156       C  0.86375110  0.50799257  0.90146371    -0.05600
C1157       C  0.86858965  0.98834497  0.93346278     0.00300
C1158       C  0.91951594  0.96677820  0.93952249    -0.08100
C1159       C  0.92764721  0.93293084  0.96646275     0.62200
H1160       H  0.00143258  0.95949010  0.92573501     0.12900
H1161       H  0.82302011  0.51984436  0.89586848     0.12900
C1162       C  0.88682610  0.50052980  0.84602160     0.63500
F1163       F  0.98110078  0.91705533  0.96915275    -0.22700
F1164       F  0.89649549  0.89023789  0.96330375    -0.20000
F1165       F  0.91504439  0.46565366  0.99075196    -0.19700
F1166       F  0.90278060  0.96618490  0.83213281    -0.19800
F1167       F  0.90451927  0.53989106  0.82896995    -0.20100
F1168       F  0.83082135  0.50140606  0.84455036    -0.22700
C1169       C  0.56642182  0.54824226  0.59944507    -0.05600
C1170       C  0.55607442  0.00102934  0.61512557     0.00300
C1171       C  0.60434643  0.96957312  0.61696845    -0.08200
C1172       C  0.64418133  0.97384160  0.59368123    -0.05600
C1173       C  0.64494842  0.01543979  0.57429914     0.00300
C1174       C  0.61175670  0.55675579  0.58046718    -0.08100
C1175       C  0.62026548  0.60921212  0.56786797     0.62200
H1176       H  0.53507862  0.57723415  0.60097294     0.12900
H1177       H  0.67590653  0.94502789  0.59124514     0.12900
C1178       C  0.62185751  0.93589582  0.64284376     0.62500
F1179       F  0.61248886  0.11056502  0.53919076    -0.22700
F1180       F  0.67100551  0.12476304  0.57660130    -0.20000
F1181       F  0.58312344  0.64448048  0.58002417    -0.19700
F1182       F  0.62918748  0.88621369  0.63283124    -0.19800
F1183       F  0.58952118  0.43643218  0.66705819    -0.20100
F1184       F  0.67311584  0.45460086  0.65284082    -0.22700
C1185       C  0.91841362  0.50869175  0.55314624    -0.05600
C1186       C  0.86462508  0.00254830  0.56250200     0.00300
C1187       C  0.85556999  0.98916599  0.59278289    -0.08200
C1188       C  0.90004736  0.98730150  0.61212814    -0.05600
C1189       C  0.95446711  0.99359710  0.60189764     0.00300
C1190       C  0.96360127  0.49657328  0.57049891    -0.08100
C1191       C  0.01370255  0.48631993  0.55045740     0.62200
H1192       H  0.92463336  0.52283589  0.53053067     0.12900
H1193       H  0.89186825  0.98241411  0.63589912     0.12900
C1194       C  0.79874812  0.98036224  0.60500303     0.62500
F1195       F  0.03183282  0.02986283  0.53724335    -0.22700
F1196       F  0.49912230  0.96172326  0.52238695    -0.20000
F1197       F  0.55311784  0.45966927  0.56125471    -0.19700
F1198       F  0.77769812  0.93858412  0.59050165    -0.19800
F1199       F  0.76563915  0.49574842  0.59932086    -0.20100
F1200       F  0.80284733  0.44011514  0.63070676    -0.22700
C1201       C  0.96280424  0.94800725  0.67498794    -0.05600
C1202       C  0.48951265  0.93994041  0.64609220     0.00300
C1203       C  0.50396802  0.88849107  0.63631982    -0.08200
C1204       C  0.50606137  0.84982907  0.65833473    -0.05600
C1205       C  0.48079259  0.85552378  0.68686721     0.00300
C1206       C  0.95648613  0.90649083  0.69435944    -0.08100
C1207       C  0.92041263  0.91232529  0.72252464     0.62200
H1208       H  0.94363537  0.98340503  0.68217668     0.12900
H1209       H  0.52437126  0.81311490  0.65264020     0.12900
C1210       C  0.51195078  0.87059965  0.60348464     0.62500
F1211       F  0.90090602  0.96156569  0.72699004    -0.22700
F1212       F  0.94871841  0.89904073  0.74763413    -0.20000
F1213       F  0.87640899  0.88104712  0.71987697    -0.19700
F1214       F  0.46926780  0.88671401  0.58638632    -0.19800
F1215       F  0.51357002  0.81813418  0.60093982    -0.20100
F1216       F  0.55977413  0.88683532  0.59115644    -0.22700
C1217       C  0.95356969  0.62620776  0.66976678    -0.05600
C1218       C  0.49221156  0.62695909  0.69200737     0.00300
C1219       C  0.52890477  0.58576954  0.69433654    -0.08200
C1220       C  0.52635628  0.54502970  0.67349925    -0.05600
C1221       C  0.48962670  0.54233523  0.64927359     0.00300
C1222       C  0.95084992  0.58562237  0.64826314    -0.08100
C1223       C  0.91038959  0.59511063  0.62337471     0.62200
H1224       H  0.92599903  0.65855152  0.66893070     0.12900
H1225       H  0.55513771  0.51476564  0.67573090     0.12900
C1226       C  0.57024625  0.58386579  0.71920624     0.62500
F1227       F  0.88995266  0.64445917  0.62387780    -0.22700
F1228       F  0.86617836  0.56468805  0.62710585    -0.20000
F1229       F  0.93473856  0.58849958  0.59535983    -0.19700
F1230       F  0.54476389  0.59383207  0.74686587    -0.19800
F1231       F  0.60957792  0.61953413  0.71410260    -0.20100
F1232       F  0.59589616  0.53682375  0.72057260    -0.22700
C1233       C  0.02377562  0.91190029  0.79680288    -0.05600
C1234       C  0.00483882  0.86695140  0.80863663     0.00300
C1235       C  0.48504781  0.86508954  0.83966549    -0.08200
C1236       C  0.49458840  0.90929401  0.85652539    -0.05600
C1237       C  0.00876495  0.95810277  0.84519578     0.00300
C1238       C  0.01751982  0.95866252  0.81258171    -0.08100
C1239       C  0.51192169  0.00208917  0.78927595     0.62200
H1240       H  0.03788984  0.91117700  0.77341409     0.12900
H1241       H  0.49287847  0.90602153  0.88064375     0.12900
C1242       C  0.96159017  0.81979314  0.85223450     0.62500
F1243       F  0.56442188  0.01827406  0.78634684    -0.22700
F1244       F  0.48380295  0.53888232  0.79846844    -0.20000
F1245       F  0.00777223  0.48954433  0.76006954    -0.19700
F1246       F  0.49870051  0.77796111  0.84977610    -0.19800
F1247       F  0.91369190  0.80998333  0.83790239    -0.20100
F1248       F  0.94968175  0.82587424  0.88280484    -0.22700
C1249       C  0.97743985  0.59443803  0.85653200    -0.05600
C1250       C  0.02105332  0.55921905  0.85269222     0.00300
C1251       C  0.55899339  0.57314823  0.83910474    -0.08200
C1252       C  0.55339024  0.61634589  0.82061231    -0.05600
C1253       C  0.01141219  0.64736177  0.81609613     0.00300
C1254       C  0.96876281  0.63441086  0.83645372    -0.08100
C1255       C  0.91287132  0.65966156  0.83628692     0.62200
H1256       H  0.94704878  0.58868659  0.87375763     0.12900
H1257       H  0.58757301  0.62865121  0.80709496     0.12900
C1258       C  0.61629137  0.55051166  0.84145298     0.62500
F1259       F  0.87940070  0.64358613  0.85959900    -0.22700
F1260       F  0.88794490  0.64794597  0.80949246    -0.20000
F1261       F  0.91726436  0.71141337  0.83941002    -0.19700
F1262       F  0.61709961  0.49886463  0.83655191    -0.19800
F1263       F  0.63649207  0.56163770  0.86952383    -0.20100
F1264       F  0.65200944  0.57035963  0.82039743    -0.22700
loop_ 
_geom_bond_atom_site_label_1 
_geom_bond_atom_site_label_2 
_geom_bond_distance 
_geom_bond_site_symmetry_2 
_ccdc_geom_bond_type 
O1            V9   1.899       .  S
O1          C643   1.262   1_455  A
O2            V9   1.900       .  S
O2           C12   1.263   1_455  A
O3            V9   1.919       .  S
O3           C13   1.269   1_455  A
O4            V9   1.917       .  S
O4          C646   1.271       .  A
O5           V10   1.908       .  S
O5           C14   1.264       .  A
O6           V10   1.917       .  S
O6          C645   1.267       .  A
O7           V10   1.914       .  S
O7          C644   1.269       .  A
O8           V10   1.908       .  S
O8           C11   1.266       .  A
V9          V642   2.082   1_455  T
V10         V641   2.082       .  T
C11         O633   1.263       .  A
C11         C128   1.482       .  S
C12         O639   1.269       .  A
C12         C112   1.497       .  S
C13         O638   1.265       .  A
C13          C99   1.496       .  S
C14         O636   1.270       .  A
C14         C147   1.508       .  S
C15          C64   1.575       .  S
C15          C96   1.603   1_455  S
C15         C715   1.585   1_455  S
C15         C431   1.618   1_455  S
C16         C144   1.604       .  S
C16         C983   1.599       .  S
C16         C364   1.628   1_545  S
C16         C447   1.591   1_545  S
O17          V25   1.905       .  S
O17          C27   1.268       .  A
O18         V183   1.893       .  S
O18          C28   1.261       .  A
O19         V183   1.901       .  S
O19          C29   1.267       .  A
O20          V25   1.909       .  S
O20          C30   1.266       .  A
O21         V184   1.907       .  S
O21         C346   1.265   1_545  A
O22          V26   1.905       .  S
O22         C345   1.264       .  A
O23          V26   1.904       .  S
O23         C344   1.265       .  A
O24         V184   1.908       .  S
O24         C343   1.265       .  A
V25         O176   1.897       .  S
V25         O177   1.902       .  S
V25         V500   2.085       .  T
V26         O179   1.909   1_554  S
V26         O182   1.908   1_554  S
V26         V499   2.085   1_545  T
C27         O340   1.265       .  A
C27          C32   1.498       .  S
C28         O339   1.265       .  A
C28          C80   1.468       .  S
C29         O338   1.263       .  A
C29          C67   1.488       .  S
C30         O337   1.267       .  A
C30          C51   1.491       .  S
C31          C32   1.398       .  A
C31          C36   1.418       .  A
C31          H38   1.083       .  S
C32         C349   1.410       .  A
C33          C40   1.516       .  S
C33          C34   1.404       .  A
C33         C348   1.410       .  A
C34         C351   1.427       .  A
C34          H39   1.081       .  S
C35         C964   1.597       .  S
C35          C36   1.459       .  A
C35         C350   1.430       .  A
C36          C37   1.537       .  S
C37          F43   1.371       .  S
C37         F357   1.381       .  S
C37         F358   1.387       .  S
C40          F44   1.378       .  S
C40         F361   1.383       .  S
C40         F362   1.385       .  S
F41         C353   1.380       .  S
F42         C353   1.386       .  S
F45         C356   1.382       .  S
F46         C356   1.385       .  S
C47          C48   1.433       .  A
C47          C52   1.405       .  A
C47          H54   1.076       .  S
C48         C332   1.625       .  S
C48         C365   1.452       .  A
C49          C56   1.519       .  S
C49          C50   1.417       .  A
C49         C364   1.453   1_545  A
C50         C367   1.394   1_545  A
C50          H55   1.085       .  S
C51          C52   1.404       .  A
C51         C366   1.396       .  A
C52          C53   1.517       .  S
C53          F57   1.384       .  S
C53          F58   1.382       .  S
C53         F375   1.373       .  S
C56          F61   1.381       .  S
C56          F62   1.384   1_545  S
C56         F376   1.362       .  S
F59         C369   1.374       .  S
F60         C372   1.363       .  S
C63          C68   1.408       .  A
C63         C380   1.423       .  A
C63          H70   1.073       .  S
C64          C65   1.444       .  A
C64         C379   1.422       .  A
C65          C72   1.531       .  S
C65          C66   1.411       .  A
C66          C67   1.403       .  A
C66          H71   1.083       .  S
C67         C384   1.411       .  A
C68          C69   1.519       .  S
C68         C383   1.412       .  A
C69          F75   1.385       .  S
C69         F389   1.380       .  S
C69         F390   1.383       .  S
C72          F76   1.383       .  S
C72         F393   1.371       .  S
C72         F394   1.384       .  S
F73         C385   1.379       .  S
F74         C385   1.383       .  S
F77         C388   1.372       .  S
F78         C388   1.385       .  S
C79          C84   1.399   1_545  A
C79         C396   1.382       .  A
C79          H86   1.083       .  S
C80          C81   1.406       .  A
C80         C395   1.382       .  A
C81          C88   1.517       .  S
C81          C82   1.408       .  A
C82          C83   1.424       .  A
C82          H87   1.076       .  S
C83         C647   1.581       .  S
C83         C400   1.455       .  A
C84          C85   1.519       .  S
C84         C399   1.453       .  A
C85         F405   1.377   1_565  S
C85        F1038   1.384       .  S
C85         F723   1.354       .  S
C88          F92   1.382       .  S
C88         F409   1.383       .  S
C88         F410   1.385       .  S
F89         C401   1.378       .  S
F90        C1033   1.384       .  S
F91         C717   1.358   1_565  S
F93         C404   1.382   1_545  S
F94         C404   1.384       .  S
C95         C100   1.411       .  A
C95         C728   1.427       .  A
C95         H102   1.076       .  S
C96          C97   1.454   1_655  A
C96         C727   1.426       .  A
C97         C104   1.529       .  S
C97          C98   1.421       .  A
C98          C99   1.396   1_455  A
C98         H103   1.083       .  S
C99         C732   1.412       .  A
C100        C101   1.519       .  S
C100        C731   1.412       .  A
C101        F105   1.384       .  S
C101        F106   1.374       .  S
C101        F107   1.383       .  S
C104        F108   1.375   1_455  S
C104        F109   1.386       .  S
C104        F110   1.371       .  S
C111        C116   1.417       .  A
C111        C744   1.390       .  A
C111        H118   1.084       .  S
C112        C113   1.410   1_655  A
C112        C743   1.395       .  A
C113        C120   1.521       .  S
C113        C114   1.405       .  A
C114        C115   1.422   1_455  A
C114        H119   1.069       .  S
C115        C331   1.614   1_655  S
C115        C748   1.462       .  A
C116        C117   1.533       .  S
C116        C747   1.464       .  A
C117        F121   1.388       .  S
C117        F122   1.379       .  S
C117        F123   1.368       .  S
C120        F124   1.382       .  S
C120        F125   1.383       .  S
C120        F126   1.385       .  S
C127        C128   1.389       .  A
C127        C132   1.413       .  A
C127        H134   1.085       .  S
C128        C761   1.401       .  A
C129        C768   1.509       .  S
C129        C130   1.403       .  A
C129        C760   1.401       .  A
C130        C763   1.426   1_655  A
C130        H135   1.072       .  S
C131        C332   1.601       .  S
C131        C132   1.465       .  A
C131        C762   1.428       .  A
C132        C765   1.534       .  S
C133        C764   1.526       .  S
C133        F137   1.377       .  S
C133        F454   1.368   1_455  S
C133       F1087   1.387   1_455  S
C136        C761   1.513       .  S
C136        F141   1.382       .  S
C136        F142   1.384       .  S
C136        F772   1.383       .  S
F138        C449   1.369   1_655  S
F139       C1081   1.388   1_565  S
F140        C768   1.383       .  S
C143        C144   1.419       .  A
C143        C148   1.414       .  A
C143        H150   1.067       .  S
C144        C777   1.452       .  A
C145        C152   1.532       .  S
C145        C146   1.420       .  A
C145        C776   1.454       .  A
C146        C779   1.401       .  A
C146        H151   1.081       .  S
C147        C148   1.419       .  A
C147        C778   1.401       .  A
C148        C149   1.521       .  S
C149        F153   1.384       .  S
C149        F154   1.383       .  S
C149        F155   1.375       .  S
C152        F156   1.371       .  S
C152        F157   1.379       .  S
C152        F158   1.385       .  S
O159        V167   1.890       .  S
O159        C801   1.260       .  A
O160        V167   1.893       .  S
O160        C170   1.262   1_455  A
O161        V167   1.916       .  S
O161        C171   1.269   1_455  A
O162        V167   1.913       .  S
O162        C804   1.270       .  A
O163        V168   1.910       .  S
O163        C172   1.264       .  A
O164        V168   1.914       .  S
O164        C803   1.267       .  A
O165        V168   1.918       .  S
O165        C802   1.269       .  A
O166        V168   1.904       .  S
O166        C169   1.266       .  A
V167        V800   2.083   1_455  T
V168        V799   2.083       .  T
C169        O791   1.261       .  A
C169        C286   1.478       .  S
C170        O797   1.269       .  A
C170        C270   1.493       .  S
C171        O796   1.266       .  A
C171        C257   1.498       .  S
C172        O794   1.270       .  A
C172        C305   1.506       .  S
C173        C222   1.579   1_655  S
C173        C873   1.589       .  S
C173        C254   1.605       .  S
C173        C589   1.622       .  S
C174       C1141   1.593   1_545  S
C174        C522   1.626   1_545  S
C174        C605   1.578   1_545  S
C174        C302   1.599       .  S
O175        V183   1.903   1_556  S
O175        C185   1.266       .  A
O176        C186   1.263       .  A
O177        C187   1.266       .  A
O178        V183   1.911   1_556  S
O178        C188   1.267       .  A
O179        C504   1.266   1_545  A
O180        V184   1.905       .  S
O180        C503   1.265       .  A
O181        V184   1.903       .  S
O181        C502   1.265   1_545  A
O182        C501   1.266       .  A
V183        V342   2.085       .  T
V184        V341   2.085   1_545  T
C185        O498   1.265       .  A
C185        C190   1.495       .  S
C186        O497   1.264       .  A
C186        C238   1.471       .  S
C187        O496   1.266       .  A
C187        C225   1.494       .  S
C188        O495   1.264       .  A
C188        C209   1.485       .  S
C189        C190   1.400       .  A
C189        C194   1.417       .  A
C189        H196   1.085       .  S
C190        C507   1.409       .  A
C191        C198   1.518       .  S
C191        C506   1.407       .  A
C191        C192   1.403       .  A
C192        C509   1.429   1_545  A
C192        H197   1.080       .  S
C193       C1122   1.591       .  S
C193        C508   1.427       .  A
C193        C194   1.457       .  A
C194        C195   1.538       .  S
C195        F515   1.383       .  S
C195        F516   1.387       .  S
C195        F201   1.370       .  S
C198        F202   1.380       .  S
C198        F519   1.383       .  S
C198        F520   1.385       .  S
F199        C511   1.380       .  S
F200        C511   1.386       .  S
F203        C514   1.383       .  S
F204        C514   1.385       .  S
C205        C206   1.436       .  A
C205        C210   1.405       .  A
C205        H212   1.076       .  S
C206        C490   1.624       .  S
C206        C523   1.449       .  A
C207        C214   1.530   1_545  S
C207        C522   1.453   1_545  A
C207        C208   1.422       .  A
C208        C525   1.398   1_545  A
C208        H213   1.083       .  S
C209        C524   1.396       .  A
C209        C210   1.403       .  A
C210        C211   1.519       .  S
C211        F215   1.385       .  S
C211        F216   1.383       .  S
C211        F533   1.376       .  S
C214        F534   1.378       .  S
C214        F219   1.368   1_565  S
C214        F220   1.386   1_565  S
F217        C527   1.373       .  S
F218        C530   1.384       .  S
C221        C538   1.420       .  A
C221        C226   1.404       .  A
C221        H228   1.073       .  S
C222        C537   1.422       .  A
C222        C223   1.444       .  A
C223        C230   1.532       .  S
C223        C224   1.415       .  A
C224        C225   1.407       .  A
C224        H229   1.083       .  S
C225        C542   1.411       .  A
C226        C227   1.519       .  S
C226        C541   1.412       .  A
C227        F547   1.376       .  S
C227        F548   1.383       .  S
C227        F233   1.385       .  S
C230        F234   1.382       .  S
C230        F551   1.372       .  S
C230        F552   1.384       .  S
F231        C543   1.380       .  S
F232        C543   1.384       .  S
F235        C546   1.372       .  S
F236        C546   1.384       .  S
C237        C554   1.384   1_545  A
C237        C242   1.403   1_545  A
C237        H244   1.085       .  S
C238        C553   1.385       .  A
C238        C239   1.406       .  A
C239        C246   1.516       .  S
C239        C240   1.409       .  A
C240        C241   1.423       .  A
C240        H245   1.077       .  S
C241        C805   1.581       .  S
C241        C558   1.456       .  A
C242        C243   1.520       .  S
C242        C557   1.456       .  A
C243        F563   1.380   1_565  S
C243       F1196   1.384       .  S
C243        F881   1.357       .  S
C246        F250   1.382       .  S
C246        F567   1.383       .  S
C246        F568   1.384       .  S
F247        C559   1.381       .  S
F248       C1191   1.385   1_655  S
F249        C875   1.354       .  S
F251        C562   1.382       .  S
F252        C562   1.384       .  S
C253        C886   1.427       .  A
C253        C258   1.410       .  A
C253        H260   1.076       .  S
C254        C885   1.427       .  A
C254        C255   1.453   1_655  A
C255        C262   1.530       .  S
C255        C256   1.421       .  A
C256        C257   1.397   1_455  A
C256        H261   1.083       .  S
C257        C890   1.412       .  A
C258        C259   1.519       .  S
C258        C889   1.411       .  A
C259        F263   1.385       .  S
C259        F264   1.376       .  S
C259        F265   1.383       .  S
C262        F266   1.375   1_455  S
C262        F267   1.386       .  S
C262        F268   1.371       .  S
C269        C902   1.393       .  A
C269        C274   1.424       .  A
C269        H276   1.082       .  S
C270        C901   1.392       .  A
C270        C271   1.409   1_655  A
C271        C278   1.520       .  S
C271        C272   1.404       .  A
C272        C273   1.421   1_455  A
C272        H277   1.069       .  S
C273        C489   1.615   1_545  S
C273        C906   1.464       .  A
C274        C275   1.530       .  S
C274        C905   1.464       .  A
C275        F279   1.386       .  S
C275        F280   1.374       .  S
C275        F281   1.373       .  S
C278        F282   1.382       .  S
C278        F283   1.382       .  S
C278        F284   1.385       .  S
C285        C286   1.389       .  A
C285        C290   1.412       .  A
C285        H292   1.085       .  S
C286        C919   1.399       .  A
C287        C926   1.509       .  S
C287        C918   1.398   1_655  A
C287        C288   1.399   1_655  A
C288        C921   1.427       .  A
C288        H293   1.075       .  S
C289        C490   1.600       .  S
C289        C920   1.427       .  A
C289        C290   1.465       .  A
C290        C923   1.536       .  S
C291        C922   1.531       .  S
C291        F295   1.376       .  S
C291        F612   1.368   1_455  S
C291       F1245   1.387       .  S
C294        C919   1.513       .  S
C294        F930   1.384       .  S
C294        F299   1.382       .  S
C294        F300   1.385       .  S
F296        C607   1.370   1_655  S
F297       C1239   1.387   1_565  S
F298        C926   1.383   1_455  S
C301        C302   1.415       .  A
C301        C306   1.413       .  A
C301        H308   1.072       .  S
C302        C935   1.449       .  A
C303        C310   1.528       .  S
C303        C934   1.448       .  A
C303        C304   1.418       .  A
C304        C937   1.401       .  A
C304        H309   1.081       .  S
C305        C936   1.401       .  A
C305        C306   1.421       .  A
C306        C307   1.519       .  S
C307        F311   1.385       .  S
C307        F312   1.382       .  S
C307        F313   1.373       .  S
C310        F314   1.370       .  S
C310        F315   1.380       .  S
C310        F316   1.385       .  S
O317        V325   1.896       .  S
O317        C959   1.262   1_455  A
O318        V325   1.899       .  S
O318        C328   1.263   1_455  A
O319        V325   1.924       .  S
O319        C329   1.270   1_455  A
O320        V325   1.919       .  S
O320        C962   1.271   1_455  A
O321        V326   1.904       .  S
O321        C330   1.264       .  A
O322        V326   1.913       .  S
O322        C961   1.266       .  A
O323        V326   1.920       .  S
O323        C960   1.270       .  A
O324        V326   1.910       .  S
O324        C327   1.266       .  A
V325        V958   2.082   1_455  T
V326        V957   2.082       .  T
C327        O949   1.261       .  A
C327        C444   1.476       .  S
C328        O955   1.268       .  A
C328        C428   1.493       .  S
C329        O954   1.268       .  A
C329        C415   1.507       .  S
C330        O952   1.269       .  A
C330        C463   1.501       .  S
C331        C380   1.585       .  S
C331       C1031   1.587   1_445  S
C331        C412   1.613   1_445  S
C332        C667   1.599       .  S
C332        C460   1.598       .  S
O333        V341   1.900       .  S
O333        C343   1.266   1_565  A
O334        V499   1.892       .  S
O334        C344   1.261   1_565  A
O335        V499   1.900       .  S
O335        C345   1.266   1_565  A
O336        V341   1.908       .  S
O336        C346   1.265       .  A
O337        V500   1.914       .  S
O338        V342   1.903       .  S
O339        V342   1.901       .  S
O340        V500   1.908       .  S
V341        O492   1.893       .  S
V341        O493   1.902       .  S
V342        O495   1.904   1_554  S
V342        O498   1.906   1_554  S
C343        C348   1.497       .  S
C344        C396   1.469       .  S
C345        C383   1.491       .  S
C346        C367   1.484       .  S
C347        C348   1.398   1_565  A
C347        C352   1.416       .  A
C347        H354   1.082       .  S
C349        C356   1.519       .  S
C349        C350   1.407       .  A
C350        H355   1.081       .  S
C351        C648   1.593       .  S
C351        C352   1.458   1_545  A
C352        C353   1.536       .  S
C353        F359   1.372       .  S
C356        F360   1.381       .  S
C363        C364   1.435       .  A
C363        C368   1.403       .  A
C363        H370   1.075       .  S
C365        C372   1.518       .  S
C365        C366   1.419       .  A
C366        H371   1.085       .  S
C367        C368   1.401       .  A
C368        C369   1.517       .  S
C369        F373   1.384       .  S
C369        F374   1.383       .  S
C372        F377   1.382       .  S
C372        F378   1.384       .  S
C379        C384   1.407       .  A
C379        H386   1.077       .  S
C380        C381   1.442   1_545  A
C381        C388   1.528       .  S
C381        C382   1.412       .  A
C382        C383   1.406   1_565  A
C382        H387   1.083       .  S
C384        C385   1.517       .  S
C385        F391   1.385       .  S
C388        F392   1.382       .  S
C395        C400   1.401       .  A
C395        H402   1.085       .  S
C396        C397   1.409   1_545  A
C397        C404   1.514       .  S
C397        C398   1.409       .  A
C398        C399   1.421       .  A
C398        H403   1.077       .  S
C399        C963   1.576       .  S
C400        C401   1.518       .  S
C401        F722   1.385       .  S
C401       F1039   1.357       .  S
C404        F408   1.382       .  S
F406        C717   1.386   1_565  S
F407       C1033   1.357       .  S
C411       C1044   1.428       .  A
C411        C416   1.414       .  A
C411        H418   1.077       .  S
C412       C1043   1.427       .  A
C412        C413   1.452   1_655  A
C413        C420   1.528       .  S
C413        C414   1.427       .  A
C414        C415   1.400   1_455  A
C414        H419   1.083       .  S
C415       C1048   1.413       .  A
C416        C417   1.519       .  S
C416       C1047   1.412       .  A
C417        F421   1.385       .  S
C417        F422   1.376       .  S
C417        F423   1.383       .  S
C420        F424   1.378   1_455  S
C420        F425   1.385       .  S
C420        F426   1.367       .  S
C427       C1060   1.391       .  A
C427        C432   1.421       .  A
C427        H434   1.084       .  S
C428       C1059   1.392       .  A
C428        C429   1.407   1_655  A
C429        C436   1.520       .  S
C429        C430   1.404       .  A
C430        C431   1.422   1_455  A
C430        H435   1.068       .  S
C431       C1064   1.464       .  A
C432        C433   1.533       .  S
C432       C1063   1.465       .  A
C433        F437   1.387       .  S
C433        F438   1.377       .  S
C433        F439   1.370       .  S
C436        F440   1.382       .  S
C436        F441   1.382       .  S
C436        F442   1.385       .  S
C443        C444   1.388       .  A
C443        C448   1.411       .  A
C443        H450   1.084       .  S
C444       C1077   1.398       .  A
C445       C1084   1.513       .  S
C445       C1076   1.399       .  A
C445        C446   1.400       .  A
C446       C1079   1.426       .  A
C446        H451   1.071       .  S
C447       C1078   1.428       .  A
C447        C448   1.465       .  A
C448       C1081   1.536   1_565  S
C449       C1080   1.537   1_545  S
C449        F453   1.377       .  S
C449        F771   1.386   1_545  S
C452       C1077   1.513       .  S
C452       F1088   1.383       .  S
C452        F457   1.382       .  S
C452        F458   1.385       .  S
F455        C765   1.387       .  S
F456       C1084   1.384       .  S
C459        C460   1.417       .  A
C459        C464   1.410       .  A
C459        H466   1.068       .  S
C460       C1093   1.452       .  A
C461        C468   1.529       .  S
C461       C1092   1.451       .  A
C461        C462   1.420       .  A
C462       C1095   1.401       .  A
C462        H467   1.081       .  S
C463       C1094   1.401       .  A
C463        C464   1.418       .  A
C464        C465   1.519       .  S
C465        F469   1.384       .  S
C465        F470   1.383       .  S
C465        F471   1.374       .  S
C468        F472   1.369       .  S
C468        F473   1.379       .  S
C468        F474   1.385       .  S
O475        V483   1.898       .  S
O475       C1117   1.262       .  A
O476        V483   1.902       .  S
O476        C486   1.263   1_455  A
O477        V483   1.920       .  S
O477        C487   1.270   1_455  A
O478        V483   1.914       .  S
O478       C1120   1.270       .  A
O479        V484   1.911       .  S
O479        C488   1.266       .  A
O480        V484   1.918       .  S
O480       C1119   1.268       .  A
O481        V484   1.914       .  S
O481       C1118   1.268       .  A
O482        V484   1.907       .  S
O482        C485   1.265       .  A
V483       V1116   2.082   1_455  T
V484       V1115   2.083       .  T
C485       O1107   1.261       .  A
C485        C602   1.472       .  S
C486       O1113   1.269       .  A
C486        C586   1.497       .  S
C487       O1112   1.266       .  A
C487        C573   1.501       .  S
C488       O1110   1.271       .  A
C488        C621   1.511       .  S
C489        C538   1.578   1_665  S
C489       C1189   1.579       .  S
C489        C570   1.609       .  S
C490        C825   1.597       .  S
C490        C618   1.599       .  S
O491        V499   1.898   1_556  S
O491        C501   1.265   1_565  A
O492        C502   1.262       .  A
O493        C503   1.266   1_565  A
O494        V499   1.908   1_556  S
O494        C504   1.266       .  A
O496        V500   1.910       .  S
O497        V500   1.900       .  S
C501        C506   1.494       .  S
C502        C554   1.473       .  S
C503        C541   1.491       .  S
C504        C525   1.487       .  S
C505        C506   1.399   1_565  A
C505        C510   1.418       .  A
C505        H512   1.082       .  S
C507        C514   1.518       .  S
C507        C508   1.403       .  A
C508        H513   1.081       .  S
C509        C806   1.595   1_565  S
C509        C510   1.458       .  A
C510        C511   1.537       .  S
C511        F517   1.372       .  S
C514        F518   1.380       .  S
C521        C522   1.433       .  A
C521        C526   1.402       .  A
C521        H528   1.076       .  S
C523        C530   1.518       .  S
C523        C524   1.415       .  A
C524        H529   1.085       .  S
C525        C526   1.402       .  A
C526        C527   1.517       .  S
C527        F531   1.384       .  S
C527        F532   1.383       .  S
C530        F535   1.363       .  S
C530        F536   1.381       .  S
C537        C542   1.406       .  A
C537        H544   1.078       .  S
C538        C539   1.443   1_545  A
C539        C546   1.529       .  S
C539        C540   1.414       .  A
C540        C541   1.407   1_565  A
C540        H545   1.084       .  S
C542        C543   1.516       .  S
C543        F549   1.385       .  S
C546        F550   1.382       .  S
C553        C558   1.402       .  A
C553        H560   1.084       .  S
C554        C555   1.407       .  A
C555        C562   1.516       .  S
C555        C556   1.410       .  A
C556        C557   1.424       .  A
C556        H561   1.076       .  S
C557       C1121   1.587       .  S
C558        C559   1.523       .  S
C559        F880   1.384       .  S
C559       F1197   1.357       .  S
C562        F566   1.382       .  S
F564        C875   1.384   1_655  S
F565       C1191   1.358       .  S
C569       C1202   1.428       .  A
C569        C574   1.414       .  A
C569        H576   1.077       .  S
C570       C1201   1.427       .  A
C570        C571   1.453   1_655  A
C571        C578   1.526       .  S
C571        C572   1.421       .  A
C572        C573   1.395   1_455  A
C572        H577   1.084       .  S
C573       C1206   1.413       .  A
C574        C575   1.520       .  S
C574       C1205   1.414       .  A
C575        F579   1.385       .  S
C575        F580   1.376       .  S
C575        F581   1.383       .  S
C578        F582   1.374   1_455  S
C578        F583   1.386   1_455  S
C578        F584   1.372       .  S
C585       C1218   1.391       .  A
C585        C590   1.420       .  A
C585        H592   1.082       .  S
C586       C1217   1.392       .  A
C586        C587   1.409   1_655  A
C587        C594   1.521       .  S
C587        C588   1.407       .  A
C588        C589   1.423   1_455  A
C588        H593   1.069       .  S
C589       C1222   1.463       .  A
C590        C591   1.530       .  S
C590       C1221   1.464       .  A
C591        F595   1.386       .  S
C591        F596   1.376       .  S
C591        F597   1.371       .  S
C594        F598   1.382       .  S
C594        F599   1.382       .  S
C594        F600   1.385       .  S
C601        C602   1.387       .  A
C601        C606   1.410       .  A
C601        H608   1.084       .  S
C602       C1235   1.398       .  A
C603       C1242   1.514       .  S
C603       C1234   1.402   1_655  A
C603        C604   1.403       .  A
C604       C1237   1.427   1_655  A
C604        H609   1.073       .  S
C605       C1236   1.428       .  A
C605        C606   1.460       .  A
C606       C1239   1.529   1_565  S
C607       C1238   1.526   1_545  S
C607        F611   1.377       .  S
C607        F929   1.386   1_445  S
C610       C1235   1.510       .  S
C610       F1246   1.383       .  S
C610        F615   1.382       .  S
C610        F616   1.385       .  S
F613        C923   1.387       .  S
F614       C1242   1.383       .  S
C617        C618   1.415       .  A
C617        C622   1.412       .  A
C617        H624   1.069       .  S
C618       C1251   1.450       .  A
C619        C626   1.531       .  S
C619       C1250   1.450       .  A
C619        C620   1.419       .  A
C620       C1253   1.402       .  A
C620        H625   1.081       .  S
C621       C1252   1.404       .  A
C621        C622   1.421       .  A
C622        C623   1.518       .  S
C623        F627   1.385       .  S
C623        F628   1.383       .  S
C623        F629   1.373       .  S
C626        F630   1.368       .  S
C626        F631   1.379       .  S
C626        F632   1.385       .  S
O633        V641   1.899       .  S
O634        V641   1.901       .  S
O634        C644   1.263       .  A
O635        V641   1.923       .  S
O635        C645   1.270       .  A
O636        V641   1.914       .  S
O637        V642   1.901       .  S
O637        C646   1.263   1_655  A
O638        V642   1.907       .  S
O639        V642   1.919       .  S
O640        V642   1.911       .  S
O640        C643   1.267       .  A
C643        C760   1.482       .  S
C644        C744   1.496       .  S
C645        C731   1.505       .  S
C646        C779   1.505       .  S
C647        C696   1.585       .  S
C647        C728   1.613       .  S
C647       C1063   1.617       .  S
C648        C996   1.632   1_455  S
C648       C1079   1.592   1_445  S
C648        C776   1.599       .  S
O649        V657   1.902       .  S
O649        C659   1.266       .  A
O650        V815   1.896   1_554  S
O650        C660   1.262       .  A
O651        V815   1.908   1_554  S
O651        C661   1.267       .  A
O652        V657   1.916       .  S
O652        C662   1.268       .  A
O653        V816   1.913       .  S
O653        C978   1.267   1_545  A
O654        V658   1.902   1_554  S
O654        C977   1.264       .  A
O655        V658   1.900   1_554  S
O655        C976   1.264   1_545  A
O656        V816   1.911       .  S
O656        C975   1.266       .  A
V657        O808   1.896       .  S
V657        O809   1.909       .  S
V657       V1132   2.083       .  T
V658        O811   1.908       .  S
V658        O814   1.905       .  S
V658       V1131   2.084   1_546  T
C659        O972   1.268       .  A
C659        C664   1.504       .  S
C660        O971   1.265       .  A
C660        C712   1.475       .  S
C661        O970   1.266       .  A
C661        C699   1.500       .  S
C662        O969   1.265       .  A
C662        C683   1.493       .  S
C663        C664   1.401       .  A
C663        C668   1.420       .  A
C663        H670   1.081       .  S
C664        C981   1.411       .  A
C665        C672   1.517       .  S
C665        C980   1.411       .  A
C665        C666   1.408       .  A
C666        C983   1.428       .  A
C666        H671   1.082       .  S
C667        C982   1.428       .  A
C667        C668   1.455       .  A
C668        C669   1.533       .  S
C669        F989   1.379       .  S
C669        F990   1.386       .  S
C669        F675   1.374       .  S
C672        F676   1.380       .  S
C672        F993   1.382       .  S
C672        F994   1.385       .  S
F673        C985   1.380       .  S
F674        C985   1.386       .  S
F677        C988   1.383       .  S
F678        C988   1.385       .  S
C679        C680   1.436       .  A
C679        C684   1.404       .  A
C679        H686   1.075       .  S
C680        C964   1.628   1_655  S
C680        C997   1.454       .  A
C681        C688   1.518       .  S
C681        C996   1.452       .  A
C681        C682   1.420       .  A
C682        C999   1.397   1_545  A
C682        H687   1.085       .  S
C683        C998   1.401       .  A
C683        C684   1.402       .  A
C684        C685   1.519       .  S
C685        F689   1.384       .  S
C685        F690   1.383       .  S
C685       F1007   1.376       .  S
C688       F1008   1.363       .  S
C688        F693   1.382       .  S
C688        F694   1.384   1_545  S
F691       C1001   1.375       .  S
F692       C1004   1.377       .  S
C695       C1012   1.420   1_545  A
C695        C700   1.404       .  A
C695        H702   1.071       .  S
C696       C1011   1.422       .  A
C696        C697   1.441       .  A
C697        C704   1.528       .  S
C697        C698   1.417       .  A
C698        C699   1.407       .  A
C698        H703   1.083       .  S
C699       C1016   1.414       .  A
C700        C701   1.521       .  S
C700       C1015   1.413       .  A
C701       F1021   1.378       .  S
C701       F1022   1.383       .  S
C701        F707   1.385       .  S
C704        F708   1.382       .  S
C704       F1025   1.371       .  S
C704       F1026   1.384       .  S
F705       C1017   1.379       .  S
F706       C1017   1.383       .  S
F709       C1020   1.372       .  S
F710       C1020   1.384       .  S
C711       C1028   1.382   1_545  A
C711        C716   1.404       .  A
C711        H718   1.084       .  S
C712       C1027   1.384       .  A
C712        C713   1.408       .  A
C713        C720   1.516       .  S
C713        C714   1.410       .  A
C714        C715   1.422       .  A
C714        H719   1.077       .  S
C715       C1032   1.456       .  A
C716        C717   1.522   1_655  S
C716       C1031   1.460   1_545  A
C717       F1037   1.380       .  S
C720        F724   1.382       .  S
C720       F1041   1.382       .  S
C720       F1042   1.385       .  S
F721       C1033   1.380       .  S
F725       C1036   1.383   1_545  S
F726       C1036   1.384       .  S
C727        C732   1.409       .  A
C727        H734   1.077       .  S
C728        C729   1.456       .  A
C729        C736   1.529       .  S
C729        C730   1.426       .  A
C730        C731   1.398       .  A
C730        H735   1.083       .  S
C732        C733   1.520       .  S
C733        F737   1.385       .  S
C733        F738   1.376       .  S
C733        F739   1.383       .  S
C736        F740   1.375       .  S
C736        F741   1.386       .  S
C736        F742   1.371       .  S
C743        C748   1.423       .  A
C743        H750   1.083       .  S
C744        C745   1.411       .  A
C745        C752   1.521       .  S
C745        C746   1.409       .  A
C746        C747   1.422       .  A
C746        H751   1.069       .  S
C747        C963   1.615   1_545  S
C748        C749   1.534       .  S
C749        F753   1.386       .  S
C749        F754   1.375       .  S
C749        F755   1.374       .  S
C752        F756   1.382       .  S
C752        F757   1.382       .  S
C752        F758   1.385       .  S
C759        C760   1.389   1_455  A
C759        C764   1.412       .  A
C759        H766   1.085       .  S
C761        C762   1.404       .  A
C762        H767   1.072       .  S
C763        C964   1.589       .  S
C763        C764   1.460       .  A
C765        F769   1.377       .  S
C765       F1086   1.370       .  S
C768        F773   1.382       .  S
C768        F774   1.385       .  S
F770       C1081   1.371       .  S
C775        C776   1.414   1_655  A
C775        C780   1.410       .  A
C775        H782   1.068       .  S
C777        C784   1.531       .  S
C777        C778   1.419       .  A
C778        H783   1.081       .  S
C779        C780   1.420   1_455  A
C780        C781   1.519       .  S
C781        F785   1.384       .  S
C781        F786   1.383       .  S
C781        F787   1.372       .  S
C784        F788   1.370       .  S
C784        F789   1.379       .  S
C784        F790   1.385       .  S
O791        V799   1.896       .  S
O792        V799   1.897       .  S
O792        C802   1.263       .  A
O793        V799   1.915       .  S
O793        C803   1.268       .  A
O794        V799   1.911       .  S
O795        V800   1.906       .  S
O795        C804   1.264   1_655  A
O796        V800   1.911       .  S
O797        V800   1.920       .  S
O798        V800   1.908       .  S
O798        C801   1.266   1_655  A
C801        C918   1.473       .  S
C802        C902   1.495       .  S
C803        C889   1.498       .  S
C804        C937   1.504       .  S
C805        C854   1.578       .  S
C805        C886   1.606       .  S
C805       C1221   1.619       .  S
C806       C1154   1.621   1_445  S
C806       C1237   1.587   1_545  S
C806        C934   1.595       .  S
O807        V815   1.903       .  S
O807        C817   1.266       .  A
O808        C818   1.261       .  A
O809        C819   1.268       .  A
O810        V815   1.915       .  S
O810        C820   1.268       .  A
O811       C1136   1.265   1_545  A
O812        V816   1.907       .  S
O812       C1135   1.265       .  A
O813        V816   1.905       .  S
O813       C1134   1.265       .  A
O814       C1133   1.265   1_545  A
V815        V974   2.084       .  T
V816        V973   2.084   1_545  T
C817       O1130   1.266       .  A
C817        C822   1.496       .  S
C818       O1129   1.268       .  A
C818        C870   1.480       .  S
C819       O1128   1.264       .  A
C819        C857   1.495       .  S
C820       O1127   1.267       .  A
C820        C841   1.498       .  S
C821        C822   1.397       .  A
C821        C826   1.418       .  A
C821        H828   1.082       .  S
C822       C1139   1.409       .  A
C823        C830   1.516       .  S
C823       C1138   1.411       .  A
C823        C824   1.403       .  A
C824       C1141   1.425   1_545  A
C824        H829   1.081       .  S
C825       C1140   1.427       .  A
C825        C826   1.455       .  A
C826        C827   1.530       .  S
C827       F1147   1.379       .  S
C827       F1148   1.386       .  S
C827        F833   1.375       .  S
C830        F834   1.377       .  S
C830       F1151   1.381       .  S
C830       F1152   1.385       .  S
F831       C1143   1.383       .  S
F832       C1143   1.387       .  S
F835       C1146   1.382       .  S
F836       C1146   1.385       .  S
C837        C838   1.432       .  A
C837        C842   1.404       .  A
C837        H844   1.075   1_655  S
C838       C1122   1.630   1_655  S
C838       C1155   1.455       .  A
C839        C846   1.535       .  S
C839       C1154   1.456   1_545  A
C839        C840   1.422       .  A
C840       C1157   1.398   1_545  A
C840        H845   1.083       .  S
C841       C1156   1.401       .  A
C841        C842   1.404       .  A
C842        C843   1.517       .  S
C843        F847   1.384       .  S
C843        F848   1.383       .  S
C843       F1165   1.373       .  S
C846       F1166   1.375   1_545  S
C846        F851   1.371       .  S
C846        F852   1.386       .  S
F849       C1159   1.374       .  S
F850       C1162   1.378       .  S
C853       C1170   1.423       .  A
C853        C858   1.409       .  A
C853        H860   1.075       .  S
C854       C1169   1.421       .  A
C854        C855   1.443       .  A
C855        C862   1.530       .  S
C855        C856   1.414       .  A
C856        C857   1.406       .  A
C856        H861   1.084       .  S
C857       C1174   1.414       .  A
C858        C859   1.518       .  S
C858       C1173   1.413       .  A
C859       F1179   1.379       .  S
C859       F1180   1.384       .  S
C859        F865   1.385       .  S
C862        F866   1.382       .  S
C862       F1183   1.372       .  S
C862       F1184   1.384       .  S
F863       C1175   1.377       .  S
F864       C1175   1.383       .  S
F867       C1178   1.372       .  S
F868       C1178   1.384       .  S
C869       C1186   1.383       .  A
C869        C874   1.403   1_545  A
C869        H876   1.084       .  S
C870       C1185   1.386       .  A
C870        C871   1.412       .  A
C871        C878   1.515       .  S
C871        C872   1.411       .  A
C872        C873   1.422       .  A
C872        H877   1.077       .  S
C873       C1190   1.456       .  A
C874        C875   1.523   1_655  S
C874       C1189   1.458       .  A
C875       F1195   1.381   1_565  S
C878        F882   1.382       .  S
C878       F1199   1.381       .  S
C878       F1200   1.385       .  S
F879       C1191   1.380       .  S
F883       C1194   1.383   1_545  S
F884       C1194   1.385       .  S
C885        C890   1.411       .  A
C885        H892   1.077       .  S
C886        C887   1.455       .  A
C887        C894   1.530       .  S
C887        C888   1.422       .  A
C888        C889   1.396       .  A
C888        H893   1.083       .  S
C890        C891   1.521       .  S
C891        F895   1.385       .  S
C891        F896   1.376       .  S
C891        F897   1.383       .  S
C894        F898   1.375       .  S
C894        F899   1.386       .  S
C894        F900   1.370       .  S
C901        C906   1.421       .  A
C901        H908   1.084       .  S
C902        C903   1.407       .  A
C903        C910   1.521       .  S
C903        C904   1.404       .  A
C904        C905   1.421       .  A
C904        H909   1.063       .  S
C905       C1121   1.618   1_545  S
C906        C907   1.533       .  S
C907        F911   1.387       .  S
C907        F912   1.378       .  S
C907        F913   1.370       .  S
C910        F914   1.382       .  S
C910        F915   1.382       .  S
C910        F916   1.384       .  S
C917        C918   1.388       .  A
C917        C922   1.411       .  A
C917        H924   1.084       .  S
C919        C920   1.400       .  A
C920        H925   1.070       .  S
C921       C1122   1.578       .  S
C921        C922   1.462       .  A
C923        F927   1.378       .  S
C923       F1244   1.370       .  S
C926        F931   1.382       .  S
C926        F932   1.385       .  S
F928       C1239   1.367       .  S
C933        C934   1.413   1_655  A
C933        C938   1.411       .  A
C933        H940   1.074       .  S
C935        C942   1.529       .  S
C935        C936   1.417       .  A
C936        H941   1.081       .  S
C937        C938   1.421   1_455  A
C938        C939   1.519       .  S
C939        F943   1.385       .  S
C939        F944   1.382       .  S
C939        F945   1.372       .  S
C942        F946   1.368       .  S
C942        F947   1.380       .  S
C942        F948   1.385       .  S
O949        V957   1.892       .  S
O950        V957   1.899       .  S
O950        C960   1.263       .  A
O951        V957   1.917       .  S
O951        C961   1.269       .  A
O952        V957   1.910       .  S
O953        V958   1.914       .  S
O953        C962   1.266       .  A
O954        V958   1.920       .  S
O955        V958   1.914       .  S
O956        V958   1.904       .  S
O956        C959   1.265       .  A
C959       C1076   1.476       .  S
C960       C1060   1.497       .  S
C961       C1047   1.499       .  S
C962       C1095   1.513   1_655  S
C963       C1012   1.581       .  S
C963       C1044   1.608       .  S
C964       C1092   1.602       .  S
O965        V973   1.907       .  S
O965        C975   1.268   1_565  A
O966       V1131   1.899       .  S
O966        C976   1.263       .  A
O967       V1131   1.907       .  S
O967        C977   1.267   1_565  A
O968        V973   1.915       .  S
O968        C978   1.268       .  A
O969       V1132   1.910       .  S
O970        V974   1.912   1_554  S
O971        V974   1.905   1_554  S
O972       V1132   1.918       .  S
V973       O1124   1.898       .  S
V973       O1125   1.907       .  S
V974       O1127   1.917       .  S
V974       O1130   1.910       .  S
C975        C980   1.502       .  S
C976       C1028   1.473       .  S
C977       C1015   1.493       .  S
C978        C999   1.494       .  S
C979        C980   1.398   1_565  A
C979        C984   1.420       .  A
C979        H986   1.082       .  S
C981        C988   1.516       .  S
C981        C982   1.407       .  A
C982        H987   1.081       .  S
C983        C984   1.460   1_545  A
C984        C985   1.538       .  S
C985        F991   1.373       .  S
C988        F992   1.378       .  S
C995        C996   1.437   1_565  A
C995       C1000   1.407       .  A
C995       H1002   1.074       .  S
C997       C1004   1.533       .  S
C997        C998   1.426       .  A
C998       H1003   1.083       .  S
C999       C1000   1.404       .  A
C1000      C1001   1.519       .  S
C1001      F1005   1.385       .  S
C1001      F1006   1.383       .  S
C1004      F1009   1.369       .  S
C1004      F1010   1.386       .  S
C1011      C1016   1.412       .  A
C1011      H1018   1.073       .  S
C1012      C1013   1.442       .  A
C1013      C1020   1.528       .  S
C1013      C1014   1.418       .  A
C1014      C1015   1.409   1_565  A
C1014      H1019   1.083       .  S
C1016      C1017   1.519       .  S
C1017      F1023   1.385       .  S
C1020      F1024   1.382       .  S
C1027      C1032   1.403       .  A
C1027      H1034   1.084       .  S
C1028      C1029   1.405       .  A
C1029      C1036   1.516       .  S
C1029      C1030   1.410       .  A
C1030      C1031   1.427       .  A
C1030      H1035   1.077       .  S
C1032      C1033   1.521   1_655  S
C1036      F1040   1.382       .  S
C1043      C1048   1.412       .  A
C1043      H1050   1.077       .  S
C1044      C1045   1.454       .  A
C1045      C1052   1.526       .  S
C1045      C1046   1.419       .  A
C1046      C1047   1.394       .  A
C1046      H1051   1.084       .  S
C1048      C1049   1.519       .  S
C1049      F1053   1.385       .  S
C1049      F1054   1.373       .  S
C1049      F1055   1.382       .  S
C1052      F1056   1.374       .  S
C1052      F1057   1.387       .  S
C1052      F1058   1.372       .  S
C1059      C1064   1.422       .  A
C1059      H1066   1.083       .  S
C1060      C1061   1.410       .  A
C1061      C1068   1.519       .  S
C1061      C1062   1.408       .  A
C1062      C1063   1.421       .  A
C1062      H1067   1.070       .  S
C1064      C1065   1.530       .  S
C1065      F1069   1.386       .  S
C1065      F1070   1.376       .  S
C1065      F1071   1.372       .  S
C1068      F1072   1.382       .  S
C1068      F1073   1.382       .  S
C1068      F1074   1.385       .  S
C1075      C1076   1.389   1_455  A
C1075      C1080   1.410       .  A
C1075      H1082   1.085       .  S
C1077      C1078   1.400       .  A
C1078      H1083   1.071       .  S
C1079      C1080   1.464   1_655  A
C1081      F1085   1.375       .  S
C1084      F1089   1.381       .  S
C1084      F1090   1.385       .  S
C1091      C1092   1.415   1_655  A
C1091      C1096   1.417       .  A
C1091      H1098   1.073       .  S
C1093      C1100   1.532       .  S
C1093      C1094   1.418       .  A
C1094      H1099   1.081       .  S
C1095      C1096   1.422   1_455  A
C1096      C1097   1.518       .  S
C1097      F1101   1.385       .  S
C1097      F1102   1.383       .  S
C1097      F1103   1.374       .  S
C1100      F1104   1.372       .  S
C1100      F1105   1.379       .  S
C1100      F1106   1.385       .  S
O1107      V1115   1.892       .  S
O1108      V1115   1.897       .  S
O1108      C1118   1.262       .  A
O1109      V1115   1.925       .  S
O1109      C1119   1.270       .  A
O1110      V1115   1.920       .  S
O1111      V1116   1.901       .  S
O1111      C1120   1.263   1_655  A
O1112      V1116   1.912       .  S
O1113      V1116   1.916       .  S
O1114      V1116   1.905       .  S
O1114      C1117   1.265   1_655  A
C1117      C1234   1.478       .  S
C1118      C1218   1.492       .  S
C1119      C1205   1.508       .  S
C1120      C1253   1.503       .  S
C1121      C1170   1.585   1_565  S
C1121      C1202   1.612       .  S
C1122      C1250   1.596       .  S
O1123      V1131   1.913   1_556  S
O1123      C1133   1.268       .  A
O1124      C1134   1.263   1_565  A
O1125      C1135   1.267   1_565  A
O1126      V1131   1.911   1_556  S
O1126      C1136   1.267       .  A
O1128      V1132   1.906       .  S
O1129      V1132   1.913       .  S
C1133      C1138   1.500   1_565  S
C1134      C1186   1.474       .  S
C1135      C1173   1.496       .  S
C1136      C1157   1.489       .  S
C1137      C1138   1.399   1_565  A
C1137      C1142   1.420       .  A
C1137      H1144   1.084       .  S
C1139      C1146   1.516       .  S
C1139      C1140   1.405       .  A
C1140      H1145   1.082       .  S
C1141      C1142   1.459       .  A
C1142      C1143   1.538       .  S
C1143      F1149   1.370       .  S
C1146      F1150   1.379       .  S
C1153      C1154   1.433       .  A
C1153      C1158   1.402       .  A
C1153      H1160   1.075   1_655  S
C1155      C1162   1.532       .  S
C1155      C1156   1.427       .  A
C1156      H1161   1.083       .  S
C1157      C1158   1.403       .  A
C1158      C1159   1.519       .  S
C1159      F1163   1.385       .  S
C1159      F1164   1.382       .  S
C1162      F1167   1.368       .  S
C1162      F1168   1.385       .  S
C1169      C1174   1.407       .  A
C1169      H1176   1.077       .  S
C1170      C1171   1.443   1_545  A
C1171      C1178   1.529       .  S
C1171      C1172   1.415       .  A
C1172      C1173   1.406   1_565  A
C1172      H1177   1.082       .  S
C1174      C1175   1.518       .  S
C1175      F1181   1.385       .  S
C1178      F1182   1.382       .  S
C1185      C1190   1.405       .  A
C1185      H1192   1.085       .  S
C1186      C1187   1.408   1_545  A
C1187      C1194   1.515       .  S
C1187      C1188   1.410       .  A
C1188      C1189   1.421       .  A
C1188      H1193   1.078       .  S
C1190      C1191   1.521   1_655  S
C1194      F1198   1.381       .  S
C1201      C1206   1.413       .  A
C1201      H1208   1.077       .  S
C1202      C1203   1.451       .  A
C1203      C1210   1.528       .  S
C1203      C1204   1.426       .  A
C1204      C1205   1.400       .  A
C1204      H1209   1.083       .  S
C1206      C1207   1.519       .  S
C1207      F1211   1.385       .  S
C1207      F1212   1.376       .  S
C1207      F1213   1.382       .  S
C1210      F1214   1.378       .  S
C1210      F1215   1.386       .  S
C1210      F1216   1.368       .  S
C1217      C1222   1.423       .  A
C1217      H1224   1.082       .  S
C1218      C1219   1.407       .  A
C1219      C1226   1.521       .  S
C1219      C1220   1.406       .  A
C1220      C1221   1.423       .  A
C1220      H1225   1.066       .  S
C1222      C1223   1.527       .  S
C1223      F1227   1.386       .  S
C1223      F1228   1.376       .  S
C1223      F1229   1.373       .  S
C1226      F1230   1.382       .  S
C1226      F1231   1.383       .  S
C1226      F1232   1.385       .  S
C1233      C1234   1.390       .  A
C1233      C1238   1.410       .  A
C1233      H1240   1.085       .  S
C1235      C1236   1.399       .  A
C1236      H1241   1.074       .  S
C1237      C1238   1.457       .  A
C1239      F1243   1.376       .  S
C1242      F1247   1.382       .  S
C1242      F1248   1.385       .  S
C1249      C1250   1.413   1_655  A
C1249      C1254   1.409       .  A
C1249      H1256   1.072       .  S
C1251      C1258   1.531       .  S
C1251      C1252   1.423       .  A
C1252      H1257   1.081       .  S
C1253      C1254   1.421   1_455  A
C1254      C1255   1.520       .  S
C1255      F1259   1.385       .  S
C1255      F1260   1.383       .  S
C1255      F1261   1.376       .  S
C1258      F1262   1.375       .  S
C1258      F1263   1.380       .  S
C1258      F1264   1.385       .  S
