geometry optimzed in LAMMPS
_audit_creation_date              2020-11-30 
_audit_creation_method            'lammps2cif' 
_symmetry_space_group_name_H-M    'P1' 
_symmetry_Int_Tables_number       1 
_symmetry_cell_setting            triclinic 
loop_ 
_symmetry_equiv_pos_as_xyz 
  x,y,z 
_cell_length_a                    29.02778024 
_cell_length_b                    28.93783739710902 
_cell_length_c                    19.513204688685132 
_cell_angle_alpha                 86.8401736706638 
_cell_angle_beta                  90.88270177513112 
_cell_angle_gamma                 87.14400590633281 
loop_ 
_atom_site_label 
_atom_site_type_symbol 
_atom_site_fract_x 
_atom_site_fract_y 
_atom_site_fract_z 
_atom_site_charge 
O1          O  0.23719794  0.17598686  0.30449449    -0.78100
O2          O  0.23852312  0.16876578  0.70247861    -0.79700
O3          O  0.27064074  0.09938830  0.51896754    -0.76700
O4          O  0.13788194  0.15425363  0.52392154    -0.75100
O5          O  0.09826117  0.22457444  0.52395564    -0.76900
O6          O  0.34144104  0.13101136  0.51978481    -0.77800
O7          O  0.22132075  0.12063508  0.61708223    -0.79100
O8          O  0.22173623  0.12355122  0.39235816    -0.79400
Eu9        Eu  0.21946578  0.16394651  0.50433792     2.39200
O10         O  0.19052193  0.22271783  0.57134658    -0.86900
O11         O  0.27641711  0.19245137  0.43076182    -0.90500
C12         C  0.23037468  0.13406363  0.32817399     1.04200
C13         C  0.23055031  0.12801228  0.68047342     1.04000
C14         C  0.31420500  0.09665840  0.52462663     1.03900
C15         C  0.10141756  0.18038522  0.53178012     1.01800
H16         H  0.29224947  0.16774213  0.60637869     0.31500
O17         O  0.27691812  0.19177615  0.57704491    -0.99300
H18         H  0.16285088  0.20606204  0.40491474     0.31600
O19         O  0.18590780  0.22190935  0.42937796    -1.01900
O20         O  0.25380260  0.32894406  0.69555338    -0.79100
O21         O  0.25170634  0.33583085  0.30501305    -0.78600
O22         O  0.37746410  0.22472227  0.61471345    -0.77100
O23         O  0.11327466  0.28150360  0.60896911    -0.80400
O24         O  0.10938662  0.27519359  0.38935675    -0.78300
O25         O  0.37511077  0.21805577  0.39255191    -0.76900
O26         O  0.35616673  0.34065645  0.48311653    -0.78400
O27         O  0.21405206  0.39963312  0.47855821    -0.80400
O28         O  0.39426525  0.26905294  0.48699780    -0.77100
O29         O  0.14436603  0.36576298  0.47465647    -0.79800
O30         O  0.32668587  0.24261169  0.69926340    -0.75500
O31         O  0.32366194  0.24237457  0.30576874    -0.75500
O32         O  0.16094059  0.26174090  0.30396042    -0.75200
O33         O  0.16513914  0.25739287  0.69512799    -0.78700
O34         O  0.27232896  0.38076438  0.60862591    -0.78100
O35         O  0.27211766  0.38289126  0.39005867    -0.76400
Eu36       Eu  0.24579608  0.24983211  0.64738906     2.39800
Eu37       Eu  0.24286170  0.25330397  0.35545583     2.39600
Eu38       Eu  0.33382624  0.21790437  0.50440503     2.38400
Eu39       Eu  0.15464377  0.28088967  0.49803486     2.39900
Eu40       Eu  0.27132583  0.33776842  0.50064858     2.39800
O41         O  0.21335845  0.30973686  0.42882282    -0.90800
O42         O  0.30380499  0.27733889  0.57353126    -0.89700
C43         C  0.26279997  0.37064209  0.67232292     1.04300
C44         C  0.26197841  0.37610723  0.32688231     1.03000
C45         C  0.36845338  0.23521343  0.67708995     1.02400
C46         C  0.12329740  0.26844589  0.67235117     1.04400
C47         C  0.11882129  0.26704086  0.32632499     1.03400
C48         C  0.36550419  0.23064027  0.32878643     1.02200
C49         C  0.39209057  0.31291007  0.47606925     1.02300
C50         C  0.17047846  0.40065003  0.46788872     1.02900
H51         H  0.32087043  0.29242465  0.40271399     0.32300
O52         O  0.29849573  0.27854455  0.43223087    -1.03000
H53         H  0.19688399  0.33374900  0.59523406     0.34300
O54         O  0.21171193  0.30929019  0.57057501    -1.05600
N55         N  0.46146100  0.04326144  0.47428382    -0.34600
N56         N  0.04014870  0.53375095  0.41317350    -0.55200
N57         N  0.51485201  0.45671624  0.34678746    -0.34600
N58         N  0.44061624  0.45489001  0.45461587    -0.55200
C59         C  0.99012201  0.05857658  0.54324151     0.29000
C60         C  0.43484002  0.02338969  0.52178203     0.29000
C61         C  0.06271416  0.44882296  0.33569666     0.29000
C62         C  0.50136240  0.41279750  0.35408163     0.29000
C63         C  0.04148565  0.07407052  0.44679284     0.37600
C64         C  0.07218110  0.52840900  0.36511066     0.37600
C65         C  0.39746043  0.97443969  0.44406649     0.37600
C66         C  0.42698395  0.43447684  0.39845653     0.37600
C67         C  0.97434754  0.06280396  0.60942339    -0.19900
C68         C  0.44203673  0.04217128  0.58481334    -0.19900
C69         C  0.07797911  0.40254775  0.33425487    -0.19900
C70         C  0.53893275  0.38167320  0.35080497    -0.19900
C71         C  0.07136156  0.09996662  0.40710761    -0.20900
C72         C  0.09655463  0.56809767  0.35664471    -0.20900
C73         C  0.36179150  0.95143321  0.41618257    -0.20900
C74         C  0.37922517  0.43268675  0.39720497    -0.20900
C75         C  0.02045635  0.08689014  0.50810492    -0.16300
C76         C  0.39711224  0.99852945  0.50381921    -0.16300
C77         C  0.45683649  0.40136698  0.37242108    -0.16300
C78         C  0.09066935  0.48453457  0.35407645    -0.16300
H79         H  0.98455329  0.08738175  0.64592065     0.16600
H80         H  0.42370468  0.03505827  0.63182238     0.16600
H81         H  0.11329868  0.38859459  0.33534552     0.16600
H82         H  0.53940986  0.34433569  0.35785563     0.16600
H83         H  0.07986352  0.13554704  0.41222605     0.14900
H84         H  0.12734260  0.57244558  0.32680629     0.14900
H85         H  0.32684227  0.95034925  0.43435314     0.14900
H86         H  0.35866053  0.41426609  0.36204409     0.14900
H87         H  0.45777164  0.04227510  0.42108464     0.28200
H88         H  0.49353515  0.48670680  0.34902733     0.28200
O89         O  0.49189964  0.42161423  0.80730156    -0.78100
O90         O  0.48955375  0.41437211  0.19911008    -0.79700
O91         O  0.02704278  0.34633164  0.01554439    -0.76700
O92         O  0.38885656  0.41100284  0.02625699    -0.75100
O93         O  0.35153103  0.48295362  0.01795691    -0.76900
O94         O  0.09742379  0.37883956  0.01795479    -0.77800
O95         O  0.47046588  0.36692934  0.11376037    -0.79100
O96         O  0.47216675  0.37002981  0.89387025    -0.79400
Eu97       Eu  0.47289904  0.41171765  0.00354033     2.39200
O98         O  0.44617001  0.47303844  0.06827780    -0.86900
O99         O  0.03034155  0.43868074  0.92790617    -0.90500
C100        C  0.48251721  0.38008579  0.83037566     1.04200
C101        C  0.47947373  0.37400412  0.17714081     1.04000
C102        C  0.07078831  0.34426632  0.02418701     1.03900
C103        C  0.35326656  0.43932515  0.03180217     1.01800
H104        H  0.04515361  0.41274039  0.10329301     0.31500
O105        O  0.03079289  0.43724527  0.07367132    -0.99300
H106        H  0.41729694  0.45729200  0.90564927     0.31600
O107        O  0.44129176  0.47194806  0.92991554    -1.01900
O108        O  0.50743602  0.07422833  0.19918696    -0.79100
O109        O  0.50374200  0.08206459  0.80383900    -0.78600
O110        O  0.13346140  0.47467319  0.10868688    -0.77100
O111        O  0.37056507  0.53246734  0.10897580    -0.80400
O112        O  0.36642685  0.02603875  0.88781258    -0.78300
O113        O  0.13005196  0.96689899  0.88949254    -0.76900
O114        O  0.11061786  0.08833899  0.99063733    -0.78400
O115        O  0.47403550  0.14927042  0.98302686    -0.80400
O116        O  0.14901356  0.01727073  0.98808609    -0.77100
O117        O  0.40376741  0.11672096  0.97741348    -0.79800
O118        O  0.08248117  0.49103786  0.19341664    -0.75500
O119        O  0.07850674  0.99095016  0.80283290    -0.75500
O120        O  0.41742813  0.00898698  0.80311848    -0.75200
O121        O  0.42109696  0.50645191  0.19588081    -0.78700
O122        O  0.52491757  0.12664082  0.11236525    -0.78100
O123        O  0.52454486  0.12934253  0.88848024    -0.76400
Eu124      Eu  0.50121153  0.49639831  0.14732745     2.39800
Eu125      Eu  0.49851196  0.00041047  0.85595494     2.39600
Eu126      Eu  0.08812194  0.46458772  0.00050222     2.38400
Eu127      Eu  0.41221570  0.53362217  0.99634231     2.39900
Eu128      Eu  0.52699132  0.08526624  0.00144357     2.39800
O129        O  0.46972222  0.05802176  0.92815532    -0.90800
O130        O  0.05795662  0.02284336  0.07114867    -0.89700
C131        C  0.51522381  0.11623960  0.17613160     1.04300
C132        C  0.51312224  0.12245504  0.82555228     1.03000
C133        C  0.12445048  0.48545459  0.17091192     1.02400
C134        C  0.37966304  0.51886570  0.17267655     1.04400
C135        C  0.37555196  0.01619622  0.82529602     1.03400
C136        C  0.12038714  0.97999511  0.82604462     1.02200
C137        C  0.14708882  0.06139601  0.98568804     1.02300
C138        C  0.43053271  0.15136283  0.97367580     1.04900
H139        H  0.07729322  0.04083382  0.90044249     0.32300
O140        O  0.05467699  0.02600941  0.92841411    -1.03000
H141        H  0.45258423  0.08089110  0.09643740     0.34300
O142        O  0.46765323  0.05670599  0.07154218    -1.05600
N143        N  0.27847669  0.21636785  0.00318751    -0.34600
N144        N  0.20381658  0.21493228  0.08983706    -0.55200
N145        N  0.22374782  0.29946983  0.15859014    -0.34600
N146        N  0.30414705  0.29798344  0.05616624    -0.55200
C147        C  0.25543968  0.18267418  0.97653773     0.29000
C148        C  0.30695982  0.23253042  0.95503451     0.29000
C149        C  0.17731493  0.30235471  0.15578208     0.29000
C150        C  0.23752783  0.34299260  0.14805271     0.29000
C151        C  0.20429778  0.17048880  0.07395704     0.37600
C152        C  0.17034207  0.22121562  0.13530708     0.37600
C153        C  0.34433808  0.28255123  0.03074956     0.37600
C154        C  0.31385871  0.31898971  0.11355935     0.37600
C155        C  0.26858395  0.17700390  0.90935209    -0.19900
C156        C  0.30158297  0.20880476  0.89564132    -0.19900
C157        C  0.16159259  0.34863626  0.15246837    -0.19900
C158        C  0.19989124  0.37436175  0.14592373    -0.19900
C159        C  0.17118719  0.14752458  0.11163796    -0.20900
C160        C  0.14857472  0.18043369  0.14902642    -0.20900
C161        C  0.38090293  0.29476225  0.07120604    -0.20900
C162        C  0.36134918  0.31894140  0.12342609    -0.20900
C163        C  0.22716425  0.15468307  0.01591565    -0.16300
C164        C  0.34594780  0.25563090  0.97343115    -0.16300
C165        C  0.28297792  0.35337959  0.13347098    -0.16300
C166        C  0.15022727  0.26501337  0.14136372    -0.16300
H167        H  0.25756277  0.15113243  0.87549240     0.16600
H168        H  0.32223350  0.21131295  0.84998675     0.16600
H169        H  0.12618703  0.36225623  0.14925108     0.16600
H170        H  0.20002239  0.41147090  0.13626010     0.16600
H171        H  0.16150429  0.11212851  0.10817233     0.14900
H172        H  0.11768649  0.17592441  0.17857455     0.14900
H173        H  0.41734509  0.28794605  0.06308288     0.14900
H174        H  0.37965196  0.33723808  0.16140881     0.14900
H175        H  0.28197408  0.22030931  0.05578435     0.28200
H176        H  0.24516095  0.26932730  0.16096621     0.28200
C177        C  0.99346583  0.24109649  0.24950130    -0.00500
C178        C  0.25121684  0.50789902  0.24949604    -0.00500
C179        C  0.99664962  0.25441559  0.74979077    -0.00500
C180        C  0.24833578  0.49642920  0.75256328    -0.00500
C181        C  0.16475872  0.49251390  0.22003152    -0.14400
C182        C  0.20812437  0.50330521  0.20053063    -0.29600
H183        H  0.15882820  0.48968768  0.27423406     0.14600
H184        H  0.21377211  0.00321127  0.14659101     0.15200
C185        C  0.33977462  0.51573507  0.22288716    -0.14400
C186        C  0.29439119  0.51506717  0.20281112    -0.29600
H187        H  0.34796065  0.00991117  0.27796944     0.14600
H188        H  0.28799352  0.51859946  0.14775720     0.15200
C189        C  0.48019486  0.33182691  0.22673095    -0.14400
C190        C  0.48577550  0.28767184  0.20604799    -0.29600
H191        H  0.47881389  0.33646824  0.28078560     0.14600
H192        H  0.98891344  0.28269623  0.14715874     0.15200
C193        C  0.50322573  0.20092058  0.20633964    -0.14400
C194        C  0.51063926  0.15500125  0.22627946    -0.29600
H195        H  0.50267903  0.20876491  0.15126389     0.14600
H196        H  0.00993246  0.14388492  0.27685022     0.15200
C197        C  0.09032155  0.30175171  0.05380743    -0.11300
C198        C  0.11223249  0.27710805  0.09492102    -0.12800
C199        C  0.31420136  0.42154614  0.06417073    -0.11300
C200        C  0.29224831  0.39720098  0.10101980    -0.12800
C201        C  0.38788764  0.23174083  0.95780337    -0.11300
C202        C  0.41085743  0.19646465  0.95953739    -0.12800
C203        C  0.21435798  0.11245687  0.99035416    -0.11300
C204        C  0.18890426  0.08294373  0.97998281    -0.12800
C205        C  0.33504135  0.01074748  0.77673318    -0.14400
C206        C  0.29174140  0.00160735  0.79910192    -0.29600
H207        H  0.34121744  0.01249075  0.72192363     0.14600
H208        H  0.28845827  0.49686413  0.85376679     0.15200
C209        C  0.16050337  0.98493310  0.77728728    -0.14400
C210        C  0.20527558  0.98817115  0.79926229    -0.29600
H211        H  0.15300398  0.48815609  0.72297789     0.14600
H212        H  0.21142430  0.98555871  0.85440501     0.15200
C213        C  0.00495428  0.20860177  0.79540732    -0.14400
C214        C  0.50875853  0.16443278  0.77544174    -0.29600
H215        H  0.00740340  0.21189362  0.85048691     0.14600
H216        H  0.50503431  0.15894777  0.72107853     0.15200
C217        C  0.99010129  0.29580975  0.79779932    -0.14400
C218        C  0.48511246  0.34158527  0.77997398    -0.29600
H219        H  0.48888177  0.28694015  0.85410444     0.14600
H220        H  0.98408685  0.35146392  0.72309015     0.15200
C221        C  0.40892410  0.24031713  0.72625686    -0.14400
C222        C  0.45239227  0.24937205  0.70460317    -0.29600
H223        H  0.40250426  0.23833516  0.78099721     0.14600
H224        H  0.45668976  0.25259960  0.64939188     0.15200
C225        C  0.08388180  0.26428197  0.72239961    -0.14400
C226        C  0.03880564  0.26195809  0.70207373    -0.29600
H227        H  0.09238973  0.26003486  0.77682564     0.14600
H228        H  0.03200481  0.26482716  0.64707311     0.15200
C229        C  0.23472978  0.08590904  0.72995246    -0.14400
C230        C  0.23907598  0.04200456  0.70753763    -0.29600
H231        H  0.23740534  0.09092425  0.78456284     0.14600
H232        H  0.23775528  0.03874480  0.65237185     0.15200
C233        C  0.26045938  0.40929512  0.72252249    -0.14400
C234        C  0.25589478  0.45556135  0.70339943    -0.29600
H235        H  0.25907636  0.39918424  0.77682298     0.14600
H236        H  0.25579831  0.46434336  0.64854722     0.15200
C237        C  0.35509134  0.01597246  0.52955026    -0.11300
C238        C  0.33283013  0.05104121  0.53487762    -0.12800
C239        C  0.03512728  0.12739024  0.53802484    -0.11300
C240        C  0.06081332  0.15738728  0.54590104    -0.12800
C241        C  0.12865186  0.46911663  0.39885877    -0.11300
C242        C  0.15046843  0.44283526  0.43786015    -0.12800
C243        C  0.43025268  0.33154301  0.44263869    -0.11300
C244        C  0.44994270  0.35669516  0.40394153    -0.12800
C245        C  0.07850506  0.26168294  0.27713882    -0.14400
C246        C  0.03683429  0.24603776  0.29705783    -0.29600
H247        H  0.08283388  0.27026206  0.22340330     0.14600
H248        H  0.03342495  0.23760457  0.35160698     0.15200
C249        C  0.40561650  0.23382587  0.27905481    -0.14400
C250        C  0.45094816  0.23480670  0.29990179    -0.29600
H251        H  0.39744308  0.23875665  0.22459359     0.14600
H252        H  0.45731485  0.23149622  0.35498415     0.15200
C253        C  0.26082473  0.41830565  0.27696859    -0.14400
C254        C  0.25850244  0.46265346  0.29708249    -0.29600
H255        H  0.25910445  0.41376897  0.22307808     0.14600
H256        H  0.25952124  0.46639765  0.35213315     0.15200
C257        C  0.23444931  0.09568879  0.27768934    -0.14400
C258        C  0.24220775  0.05000751  0.29743580    -0.29600
H259        H  0.23443897  0.10564996  0.22323829     0.14600
H260        H  0.24328665  0.04240189  0.35257863     0.15200
O261        O  0.24360209  0.67582836  0.30855712    -0.78100
O262        O  0.24178195  0.66943946  0.70495174    -0.79700
O263        O  0.28134094  0.60268585  0.52582726    -0.76700
O264        O  0.14419064  0.65528263  0.52319469    -0.75100
O265        O  0.10335519  0.72506995  0.52234315    -0.76900
O266        O  0.35116488  0.63615291  0.52872293    -0.77800
O267        O  0.22508887  0.62163127  0.61894816    -0.79100
O268        O  0.22820274  0.62301118  0.39588419    -0.79400
Eu269      Eu  0.22635168  0.66469111  0.50672567     2.39200
O270        O  0.19568529  0.72324698  0.57320494    -0.86900
O271        O  0.28330221  0.69416474  0.43401495    -0.90500
C272        C  0.23664165  0.63373197  0.33170713     1.04200
C273        C  0.23353373  0.62880935  0.68256044     1.04000
C274        C  0.32478666  0.60132645  0.53495452     1.03900
C275        C  0.10712602  0.68089817  0.52935287     1.01800
H276        H  0.29751073  0.67037903  0.61035904     0.31500
O277        O  0.28256698  0.69403521  0.57993205    -0.99300
H278        H  0.16940465  0.70635388  0.40821841     0.31600
O279        O  0.19215962  0.72261237  0.43257281    -1.01900
O280        O  0.25643612  0.82907337  0.70015355    -0.79100
O281        O  0.25533318  0.83681847  0.30848054    -0.78600
O282        O  0.38188924  0.72908882  0.61829504    -0.77100
O283        O  0.11753625  0.78160564  0.61092037    -0.80400
O284        O  0.11458321  0.77461690  0.39153190    -0.78300
O285        O  0.38089405  0.72138711  0.39564101    -0.76900
O286        O  0.35988365  0.84582686  0.48907231    -0.78400
O287        O  0.21793126  0.90187357  0.48330123    -0.80400
O288        O  0.39913334  0.77487540  0.49504075    -0.77100
O289        O  0.14909874  0.86672068  0.47594751    -0.79800
O290        O  0.33057313  0.74500059  0.70299676    -0.75500
O291        O  0.32908645  0.74342361  0.30833602    -0.75500
O292        O  0.16625652  0.76012208  0.30669078    -0.75200
O293        O  0.16911036  0.75842349  0.69784101    -0.78700
O294        O  0.27466954  0.88106676  0.61322444    -0.78100
O295        O  0.27395681  0.88472971  0.39327982    -0.76400
Eu296      Eu  0.24979566  0.75081245  0.65045301     2.39800
Eu297      Eu  0.24851282  0.75406826  0.35843025     2.39600
Eu298      Eu  0.33957286  0.72182402  0.50779363     2.38400
Eu299      Eu  0.15956092  0.78162579  0.50016989     2.39900
Eu300      Eu  0.27505687  0.83974935  0.50398567     2.39800
O301        O  0.21819847  0.81061046  0.43128684    -0.90800
O302        O  0.30767215  0.77987985  0.57734138    -0.89700
C303        C  0.26497466  0.87076396  0.67677256     1.04300
C304        C  0.26425789  0.87746419  0.33016158     1.03000
C305        C  0.37248486  0.73862793  0.68080484     1.02400
C306        C  0.12731538  0.76903125  0.67456988     1.04400
C307        C  0.12401732  0.76536815  0.32890040     1.03400
C308        C  0.37104904  0.73246529  0.33142050     1.02200
C309        C  0.39653993  0.81876036  0.48412792     1.02300
C310        C  0.17458285  0.90221707  0.47083231     1.02900
H311        H  0.32640899  0.79577074  0.40565173     0.32300
O312        O  0.30392715  0.78154338  0.43461529    -1.03000
H313        H  0.20026247  0.83456232  0.59825918     0.34300
O314        O  0.21562320  0.81036174  0.57366188    -1.05600
N315        N  0.46828955  0.53597666  0.50990386    -0.34600
N316        N  0.04205447  0.03057079  0.42618428    -0.55200
N317        N  0.52281814  0.95216980  0.33837743    -0.34600
N318        N  0.43690517  0.96447856  0.41249971    -0.55200
C319        C  0.99304951  0.56162086  0.53352608     0.29000
C320        C  0.44468024  0.51565965  0.56088378     0.29000
C321        C  0.06574286  0.94935846  0.34085888     0.29000
C322        C  0.50858676  0.90867947  0.34912114     0.29000
C323        C  0.04364098  0.57629671  0.43623126     0.37600
C324        C  0.07205581  0.02808521  0.37480287     0.37600
C325        C  0.40251910  0.46760620  0.48812144     0.37600
C326        C  0.42877683  0.93258473  0.36784066     0.37600
C327        C  0.98169922  0.56277937  0.60221570    -0.19900
C328        C  0.45408211  0.53610143  0.62194358    -0.19900
C329        C  0.08215950  0.90348632  0.33821485    -0.19900
C330        C  0.54599781  0.87713948  0.35392536    -0.19900
C331        C  0.07755934  0.59921392  0.40041674    -0.20900
C332        C  0.09180690  0.07011972  0.36267965    -0.20900
C333        C  0.36344169  0.45462680  0.45393623    -0.20900
C334        C  0.38185978  0.92433237  0.36755411    -0.20900
C335        C  0.02359562  0.58935370  0.49806964    -0.16300
C336        C  0.40453714  0.49341537  0.54639166    -0.16300
C337        C  0.46303499  0.89794252  0.36293944    -0.16300
C338        C  0.09261082  0.98575279  0.36002697    -0.16300
H339        H  0.99548853  0.58457555  0.64008278     0.16600
H340        H  0.43724954  0.53015878  0.67045341     0.16600
H341        H  0.11777743  0.89046793  0.33858450     0.16600
H342        H  0.54547941  0.84007150  0.36388291     0.16600
H343        H  0.09025266  0.63292310  0.40895810     0.14900
H344        H  0.12003799  0.07743196  0.32878362     0.14900
H345        H  0.32788243  0.45937532  0.46913236     0.14900
H346        H  0.36565662  0.89649654  0.34305683     0.14900
H347        H  0.46096449  0.53446577  0.45756619     0.28200
H348        H  0.50189862  0.98255594  0.33316827     0.28200
O349        O  0.49317303  0.92185869  0.80750072    -0.78100
O350        O  0.49132847  0.91416108  0.19965927    -0.79700
O351        O  0.02943497  0.84601152  0.01568821    -0.76700
O352        O  0.39151553  0.90607329  0.02665697    -0.75100
O353        O  0.35272338  0.97725365  0.02125943    -0.76900
O354        O  0.09942404  0.87930281  0.01714851    -0.77800
O355        O  0.47406859  0.86621446  0.11424549    -0.79100
O356        O  0.47503206  0.86982055  0.89441815    -0.79400
Eu357      Eu  0.47501929  0.91085781  0.00396952     2.39200
O358        O  0.44665968  0.97111301  0.06918192    -0.86900
O359        O  0.03107027  0.93892820  0.92871671    -0.90500
C360        C  0.48490453  0.88014447  0.83092432     1.04200
C361        C  0.48257688  0.87350415  0.17764399     1.04000
C362        C  0.07325351  0.84434759  0.02347533     1.03900
C363        C  0.35553300  0.93349556  0.03401804     1.01800
H364        H  0.04697626  0.91283821  0.10367384     0.31500
O365        O  0.03213156  0.93715336  0.07420455    -0.99300
H366        H  0.41807586  0.95484017  0.90577185     0.31600
O367        O  0.44160107  0.97005357  0.93020891    -1.01900
O368        O  0.50916359  0.57438295  0.19832614    -0.79100
O369        O  0.50575343  0.58217203  0.80404230    -0.78600
O370        O  0.13330412  0.97526066  0.11020151    -0.77100
O371        O  0.36961359  0.03085125  0.10945785    -0.80400
O372        O  0.36706202  0.52962778  0.88686326    -0.78300
O373        O  0.13014397  0.46559299  0.88982796    -0.76900
O374        O  0.11092818  0.58818719  0.99450424    -0.78400
O375        O  0.48119960  0.65019475  0.98317337    -0.80400
O376        O  0.14806910  0.51679644  0.98783810    -0.77100
O377        O  0.40943982  0.62049311  0.97969130    -0.79800
O378        O  0.08218658  0.99205252  0.19464803    -0.75500
O379        O  0.07880203  0.49049181  0.80341857    -0.75500
O380        O  0.41770581  0.51012994  0.80289040    -0.75200
O381        O  0.42071814  0.00558634  0.19604474    -0.78700
O382        O  0.52923729  0.62592215  0.11189784    -0.78100
O383        O  0.52811859  0.62857012  0.88890055    -0.76400
Eu384      Eu  0.50116591  0.99623568  0.14755560     2.39800
Eu385      Eu  0.49897697  0.50027846  0.85547122     2.39600
Eu386      Eu  0.08893780  0.96512358  0.00090913     2.38400
Eu387      Eu  0.41098705  0.03057664  0.99721815     2.39900
Eu388      Eu  0.53038881  0.58404206  0.00117154     2.39800
O389        O  0.47201506  0.55882597  0.92750977    -0.90800
O390        O  0.05769406  0.52222248  0.07137886    -0.89700
C391        C  0.51857487  0.61599528  0.17545976     1.04300
C392        C  0.51607769  0.62225391  0.82609926     1.03000
C393        C  0.12411734  0.98638924  0.17226591     1.02400
C394        C  0.37910966  0.01778375  0.17317360     1.04400
C395        C  0.37591157  0.51849988  0.82475227     1.03400
C396        C  0.12064843  0.47907745  0.82648596     1.02200
C397        C  0.14696445  0.56078006  0.98899626     1.02300
C398        C  0.43766004  0.65408369  0.97607733     1.04900
H399        H  0.07741860  0.54071577  0.90164490     0.32300
O400        O  0.05446369  0.52620434  0.92937918    -1.03000
H401        H  0.45537136  0.58232362  0.09569227     0.34300
O402        O  0.46975072  0.55767586  0.07094264    -1.05600
N403        N  0.28993435  0.70117856  0.04150354    -0.34600
N404        N  0.20907709  0.70649545  0.11471164    -0.55200
N405        N  0.22563414  0.79727889  0.16809718    -0.34600
N406        N  0.31260690  0.78328026  0.09770453    -0.55200
C407        C  0.26567640  0.66979800  0.01118017     0.29000
C408        C  0.31722453  0.71959796  0.99351922     0.29000
C409        C  0.17962489  0.80102018  0.15751716     0.29000
C410        C  0.24067633  0.84043187  0.15753885     0.29000
C411        C  0.20690288  0.66213237  0.09856336     0.37600
C412        C  0.16913931  0.71837014  0.14415772     0.37600
C413        C  0.35257792  0.77209516  0.06811998     0.37600
C414        C  0.32079553  0.81527625  0.14234971     0.37600
C415        C  0.27783182  0.66720297  0.94294215    -0.19900
C416        C  0.31071338  0.69914712  0.93162346    -0.19900
C417        C  0.16485752  0.84749411  0.15062827    -0.19900
C418        C  0.20366953  0.87238377  0.14866562    -0.19900
C419        C  0.16631471  0.64433704  0.12323527    -0.20900
C420        C  0.14162732  0.68074825  0.14990666    -0.20900
C421        C  0.38817695  0.79482715  0.09668722    -0.20900
C422        C  0.36788861  0.82248518  0.14435483    -0.20900
C423        C  0.23314613  0.64402838  0.04520729    -0.16300
C424        C  0.35376385  0.74664710  0.00971723    -0.16300
C425        C  0.28696021  0.85038383  0.14810279    -0.16300
C426        C  0.15240426  0.76421820  0.14098292    -0.16300
H427        H  0.26454299  0.64472060  0.90558768     0.16600
H428        H  0.32914635  0.70534258  0.88445256     0.16600
H429        H  0.12996253  0.86182670  0.14278651     0.16600
H430        H  0.20467027  0.90936310  0.13777120     0.16600
H431        H  0.15324622  0.61066495  0.11530582     0.14900
H432        H  0.10608235  0.68081433  0.16585539     0.14900
H433        H  0.42355613  0.79481906  0.08020309     0.14900
H434        H  0.38432563  0.84978738  0.16975358     0.14900
H435        H  0.29235052  0.70437942  0.09444734     0.28200
H436        H  0.24613770  0.76677886  0.17608579     0.28200
C437        C  0.99743351  0.73987216  0.25426381    -0.00500
C438        C  0.25072470  0.00817964  0.25032540    -0.00500
C439        C  0.00078352  0.75384317  0.75228096    -0.00500
C440        C  0.24798532  0.99654898  0.75296442    -0.00500
C441        C  0.16414874  0.99414795  0.22123112    -0.14400
C442        C  0.20802201  0.00228921  0.20149912    -0.29600
H443        H  0.15745841  0.99479885  0.27517990     0.14600
H444        H  0.21325892  0.50713574  0.14553562     0.15200
C445        C  0.33938485  0.01515491  0.22367009    -0.14400
C446        C  0.29391673  0.01524578  0.20371849    -0.29600
H447        H  0.34825696  0.51063149  0.27726119     0.14600
H448        H  0.28744972  0.01899769  0.14868943     0.15200
C449        C  0.48433596  0.83123058  0.22705621    -0.14400
C450        C  0.49142630  0.78739150  0.20624539    -0.29600
H451        H  0.48235782  0.83517949  0.28114081     0.14600
H452        H  0.99070333  0.78072535  0.15101777     0.15200
C453        C  0.50805873  0.70078018  0.20625189    -0.14400
C454        C  0.51482074  0.65475594  0.22578679    -0.29600
H455        H  0.50746906  0.70869866  0.15117810     0.14600
H456        H  0.01282905  0.64192623  0.28112360     0.15200
C457        C  0.09345061  0.80171972  0.05213948    -0.11300
C458        C  0.11517759  0.77662899  0.09304187    -0.12800
C459        C  0.31759254  0.91465451  0.06812596    -0.11300
C460        C  0.29670651  0.89168770  0.10842491    -0.12800
C461        C  0.39597979  0.73346030  0.97949047    -0.11300
C462        C  0.41970275  0.70019074  0.96838729    -0.12800
C463        C  0.21655672  0.60595922  0.01191284    -0.11300
C464        C  0.18951676  0.58087046  0.99082982    -0.12800
C465        C  0.33523627  0.51268757  0.77632388    -0.14400
C466        C  0.29239663  0.50134051  0.79857838    -0.29600
H467        H  0.34107003  0.51584379  0.72147365     0.14600
H468        H  0.28734636  0.99857311  0.85431047     0.15200
C469        C  0.16085653  0.48401137  0.77761455    -0.14400
C470        C  0.20573902  0.48753866  0.79921590    -0.29600
H471        H  0.15277637  0.98904097  0.72260767     0.14600
H472        H  0.21206992  0.48485196  0.85431683     0.15200
C473        C  0.00963996  0.70829452  0.79783774    -0.14400
C474        C  0.51210080  0.66468562  0.77684399    -0.29600
H475        H  0.01188096  0.71154618  0.85295471     0.14600
H476        H  0.50833122  0.65977901  0.72233683     0.15200
C477        C  0.99375974  0.79518913  0.79998738    -0.14400
C478        C  0.48825453  0.84155833  0.78125060    -0.29600
H479        H  0.49413964  0.78750676  0.85660527     0.14600
H480        H  0.98681039  0.85033856  0.72459901     0.15200
C481        C  0.41286914  0.74351049  0.72983761    -0.14400
C482        C  0.45663341  0.75043679  0.70771078    -0.29600
H483        H  0.40640052  0.74260441  0.78455488     0.14600
H484        H  0.46113908  0.75262592  0.65250515     0.15200
C485        C  0.08775826  0.76491438  0.72446752    -0.14400
C486        C  0.04274314  0.76174452  0.70423595    -0.29600
H487        H  0.09620880  0.76128667  0.77895916     0.14600
H488        H  0.03587201  0.76400582  0.64925587     0.15200
C489        C  0.23642251  0.58636438  0.73163481    -0.14400
C490        C  0.23924557  0.54250186  0.70843850    -0.29600
H491        H  0.23985172  0.59097805  0.78629361     0.14600
H492        H  0.23715323  0.53968968  0.65323945     0.15200
C493        C  0.26161862  0.90947524  0.72617268    -0.14400
C494        C  0.25590258  0.95525464  0.70536723    -0.29600
H495        H  0.26051950  0.89994339  0.78070207     0.14600
H496        H  0.25558110  0.96325319  0.65030929     0.15200
C497        C  0.36466965  0.52047412  0.56193505    -0.11300
C498        C  0.34412722  0.55701616  0.55469987    -0.12800
C499        C  0.04045743  0.62826620  0.52953411    -0.11300
C500        C  0.06655503  0.65738883  0.54008919    -0.12800
C501        C  0.13159007  0.97086317  0.40320546    -0.11300
C502        C  0.15414873  0.94443641  0.44116476    -0.12800
C503        C  0.43529236  0.83765732  0.45208482    -0.11300
C504        C  0.45576453  0.85873285  0.40890808    -0.12800
C505        C  0.08350022  0.75866446  0.28024417    -0.14400
C506        C  0.04113887  0.74535650  0.30124290    -0.29600
H507        H  0.08812144  0.76427970  0.22597173     0.14600
H508        H  0.03735113  0.73961009  0.35629131     0.15200
C509        C  0.41088327  0.73444224  0.28090335    -0.14400
C510        C  0.45639440  0.73531750  0.30077540    -0.29600
H511        H  0.40235097  0.73826054  0.22651269     0.14600
H512        H  0.46295589  0.73277562  0.35581619     0.15200
C513        C  0.26215947  0.91938780  0.27989870    -0.14400
C514        C  0.25830720  0.96375106  0.29924263    -0.29600
H515        H  0.26109557  0.91473052  0.22606944     0.14600
H516        H  0.25823468  0.96798656  0.35416204     0.15200
C517        C  0.23985049  0.59563020  0.28025180    -0.14400
C518        C  0.24353946  0.54925881  0.29818569    -0.29600
H519        H  0.24220655  0.60629380  0.22627753     0.14600
H520        H  0.24228045  0.54060255  0.35296532     0.15200
O521        O  0.74064010  0.17737746  0.30645675    -0.78100
O522        O  0.73909032  0.17090492  0.70208970    -0.79700
O523        O  0.77311134  0.10293658  0.51717623    -0.76700
O524        O  0.63711195  0.16122580  0.51605514    -0.75100
O525        O  0.59834710  0.23226682  0.51401297    -0.76900
O526        O  0.84384909  0.13462727  0.51915248    -0.77800
O527        O  0.72073909  0.12323356  0.61667583    -0.79100
O528        O  0.72406775  0.12513255  0.39390216    -0.79400
Eu529      Eu  0.72039426  0.16709796  0.50458181     2.39200
O530        O  0.69095117  0.22616885  0.57140010    -0.86900
O531        O  0.77743548  0.19552765  0.43139911    -0.90500
C532        C  0.73370251  0.13532694  0.32999710     1.04200
C533        C  0.73049161  0.13030519  0.67998110     1.04000
C534        C  0.81677352  0.10024755  0.52299915     1.03900
C535        C  0.60059098  0.18816720  0.51930664     1.01800
H536        H  0.79312947  0.17015828  0.60660684     0.31500
O537        O  0.77794928  0.19442832  0.57749782    -0.99300
H538        H  0.66496663  0.21022710  0.40647447     0.31600
O539        O  0.68805914  0.22612475  0.43067566    -1.01900
O540        O  0.75490100  0.33064901  0.69718350    -0.79100
O541        O  0.75488670  0.33846115  0.30596016    -0.78600
O542        O  0.87751457  0.22867814  0.61501045    -0.77100
O543        O  0.61414507  0.28317574  0.60918776    -0.80400
O544        O  0.61134391  0.27942112  0.38985167    -0.78300
O545        O  0.87555459  0.22002479  0.39172604    -0.76900
O546        O  0.85849437  0.34304863  0.48532185    -0.78400
O547        O  0.71680497  0.40409899  0.47890208    -0.80400
O548        O  0.89608341  0.27118007  0.49056179    -0.77100
O549        O  0.64672663  0.37105160  0.47632794    -0.79800
O550        O  0.82682076  0.24636776  0.69975182    -0.75500
O551        O  0.82405991  0.24329456  0.30463344    -0.75500
O552        O  0.66234671  0.26257770  0.30514503    -0.75200
O553        O  0.66555123  0.25922868  0.69584753    -0.78700
O554        O  0.77421002  0.38256784  0.61068918    -0.78100
O555        O  0.77450110  0.38570498  0.39117528    -0.76400
Eu556      Eu  0.74628801  0.25232863  0.64782539     2.39800
Eu557      Eu  0.74455689  0.25607664  0.35577344     2.39600
Eu558      Eu  0.83484773  0.22096338  0.50446097     2.38400
Eu559      Eu  0.65680706  0.28586657  0.49829412     2.39900
Eu560      Eu  0.77328426  0.34093654  0.50142852     2.39800
O561        O  0.71553055  0.31362784  0.42830474    -0.90800
O562        O  0.80431318  0.27975864  0.57381492    -0.89700
C563        C  0.76432324  0.37223541  0.67421638     1.04300
C564        C  0.76496835  0.37874232  0.32793321     1.03000
C565        C  0.86848906  0.23917284  0.67733357     1.02400
C566        C  0.62369688  0.26982008  0.67268909     1.04400
C567        C  0.62034483  0.26883079  0.32763490     1.03400
C568        C  0.86575065  0.23134829  0.32755250     1.02200
C569        C  0.89435990  0.31497870  0.47947748     1.02300
C570        C  0.67305597  0.40576954  0.46919850     1.02900
H571        H  0.82319974  0.29535586  0.40267279     0.32300
O572        O  0.80051617  0.28186455  0.43206942    -1.03000
H573        H  0.69861836  0.33753371  0.59653727     0.34300
O574        O  0.71345907  0.31308739  0.57183611    -1.05600
N575        N  0.96687747  0.02675099  0.51206033    -0.34600
N576        N  0.53698738  0.54165784  0.41460999    -0.55200
N577        N  0.01631517  0.45222845  0.33598948    -0.34600
N578        N  0.93828657  0.45541196  0.43869280    -0.55200
C579        C  0.48591278  0.07389887  0.50573032     0.29000
C580        C  0.93594004  0.01026062  0.55615080     0.29000
C581        C  0.56129465  0.45380780  0.34632373     0.29000
C582        C  0.00252678  0.40858141  0.34517067     0.29000
C583        C  0.54199372  0.08500239  0.41552142     0.37600
C584        C  0.57142654  0.53462845  0.37087016     0.37600
C585        C  0.89940601  0.96386812  0.47384702     0.37600
C586        C  0.92694255  0.43220386  0.38410924     0.37600
C587        C  0.47470014  0.07459071  0.57452073    -0.19900
C588        C  0.93956449  0.03215200  0.61751904    -0.19900
C589        C  0.57687879  0.40768258  0.34415558    -0.19900
C590        C  0.03979849  0.37702824  0.34233982    -0.19900
C591        C  0.58073164  0.10474624  0.38773207    -0.20900
C592        C  0.59622656  0.57405615  0.36253377    -0.20900
C593        C  0.86370879  0.95287815  0.43070803    -0.20900
C594        C  0.87935152  0.42893123  0.38102907    -0.20900
C595        C  0.51693046  0.10126216  0.47135604    -0.16300
C596        C  0.89659072  0.99017943  0.53180721    -0.16300
C597        C  0.95809069  0.39781567  0.36473735    -0.16300
C598        C  0.58945704  0.49004295  0.36230128    -0.16300
H599        H  0.48810095  0.09643544  0.61264874     0.16600
H600        H  0.91659903  0.02956167  0.66052619     0.16600
H601        H  0.61225823  0.39402642  0.34410820     0.16600
H602        H  0.03983565  0.33981631  0.35083507     0.16600
H603        H  0.59307075  0.13869572  0.39578201     0.14900
H604        H  0.62836520  0.57744441  0.33569720     0.14900
H605        H  0.82714221  0.95998298  0.43718138     0.14900
H606        H  0.86045183  0.40787243  0.34737948     0.14900
H607        H  0.96473996  0.02476068  0.45895671     0.28200
H608        H  0.99547078  0.48254157  0.33832817     0.28200
O609        O  0.99065857  0.42182119  0.80445750    -0.78100
O610        O  0.98802543  0.41257512  0.19600683    -0.79700
O611        O  0.52812371  0.34729958  0.02098337    -0.76700
O612        O  0.88840608  0.40819971  0.02310611    -0.75100
O613        O  0.85053974  0.47982150  0.01570914    -0.76900
O614        O  0.59877127  0.37931351  0.02217330    -0.77800
O615        O  0.97000262  0.36533256  0.11002163    -0.79100
O616        O  0.97110095  0.37002823  0.89089561    -0.79400
Eu617      Eu  0.97223242  0.41080704  0.00066804     2.39200
O618        O  0.94458497  0.47067530  0.06734951    -0.86900
O619        O  0.53117782  0.43916428  0.93097902    -0.90500
C620        C  0.98133219  0.38027273  0.82751124     1.04200
C621        C  0.97837774  0.37225508  0.17357943     1.04000
C622        C  0.57195664  0.34499706  0.02929685     1.03900
C623        C  0.85268256  0.43620737  0.02926235     1.01800
H624        H  0.54575639  0.41395550  0.10628807     0.31500
O625        O  0.53150899  0.43833508  0.07635054    -0.99300
H626        H  0.91679829  0.45604186  0.90293199     0.31600
O627        O  0.94051489  0.47087122  0.92752084    -1.01900
O628        O  0.00669869  0.07284335  0.19571391    -0.79100
O629        O  0.00293652  0.08159498  0.80101678    -0.78600
O630        O  0.63368530  0.47573920  0.11282495    -0.77100
O631        O  0.86938746  0.53256208  0.10822740    -0.80400
O632        O  0.86642400  0.02681037  0.88533489    -0.78300
O633        O  0.63043800  0.96907430  0.89104777    -0.76900
O634        O  0.61119981  0.09027888  0.99256869    -0.78400
O635        O  0.97456818  0.14809723  0.98263304    -0.80400
O636        O  0.64940271  0.01914720  0.98930029    -0.77100
O637        O  0.90375232  0.11659882  0.97827453    -0.79800
O638        O  0.58270773  0.49220687  0.19757780    -0.75500
O639        O  0.57844657  0.99232145  0.80465492    -0.75500
O640        O  0.91707071  0.00862111  0.80069966    -0.75200
O641        O  0.92036079  0.50686438  0.19473610    -0.78700
O642        O  0.02414248  0.12520052  0.10876699    -0.78100
O643        O  0.02340370  0.12850988  0.88619186    -0.76400
Eu644      Eu  0.00006839  0.49467098  0.14539302     2.39800
Eu645      Eu  0.99811013  0.99963169  0.85325423     2.39600
Eu646      Eu  0.58942221  0.46471753  0.00361523     2.38400
Eu647      Eu  0.91059799  0.53121940  0.99553239     2.39900
Eu648      Eu  0.02654183  0.08359023  0.99855170     2.39800
O649        O  0.96899143  0.05729343  0.92511731    -0.90800
O650        O  0.55871404  0.02437589  0.07354300    -0.89700
C651        C  0.01435928  0.11483027  0.17245069     1.04300
C652        C  0.01202684  0.12199338  0.82315748     1.03000
C653        C  0.62461717  0.48657253  0.17507208     1.02400
C654        C  0.87891326  0.51981496  0.17210191     1.04400
C655        C  0.87534972  0.01664251  0.82291874     1.03400
C656        C  0.62044064  0.98183364  0.82755042     1.02200
C657        C  0.64759876  0.06327131  0.98698788     1.02300
C658        C  0.93101786  0.15088803  0.97485834     1.04900
H659        H  0.57726454  0.04218048  0.90305331     0.32300
O660        O  0.55476318  0.02737288  0.93126048    -1.03000
H661        H  0.95243367  0.07928533  0.09401757     0.34300
O662        O  0.96752335  0.05511028  0.06916224    -1.05600
N663        N  0.78230991  0.21544976  0.00856118    -0.34600
N664        N  0.70713822  0.21414777  0.09389358    -0.55200
N665        N  0.72643124  0.29838752  0.16453532    -0.34600
N666        N  0.80689369  0.29705115  0.06285534    -0.55200
C667        C  0.75966949  0.18167823  0.98141310     0.29000
C668        C  0.81007659  0.23273925  0.96028140     0.29000
C669        C  0.68003850  0.30155860  0.16059901     0.29000
C670        C  0.74039404  0.34195505  0.15566096     0.29000
C671        C  0.70738517  0.16975616  0.07750612     0.37600
C672        C  0.67247074  0.22075142  0.13737218     0.37600
C673        C  0.84710719  0.28262122  0.03651974     0.37600
C674        C  0.81650374  0.31776606  0.12055455     0.37600
C675        C  0.77272925  0.17670689  0.91403061    -0.19900
C676        C  0.80490923  0.20936249  0.90048253    -0.19900
C677        C  0.66444546  0.34782137  0.15915311    -0.19900
C678        C  0.70284410  0.37347183  0.15451239    -0.19900
C679        C  0.67305521  0.14723524  0.11316533    -0.20900
C680        C  0.64981827  0.18033583  0.14931927    -0.20900
C681        C  0.88363959  0.29505879  0.07674384    -0.20900
C682        C  0.86399948  0.31836917  0.12979127    -0.20900
C683        C  0.73071533  0.15386029  0.01983660    -0.16300
C684        C  0.84876570  0.25627649  0.97864349    -0.16300
C685        C  0.78565042  0.35233232  0.13989071    -0.16300
C686        C  0.65290333  0.26475456  0.14401943    -0.16300
H687        H  0.76183579  0.15109787  0.87962920     0.16600
H688        H  0.82520478  0.21275104  0.85455211     0.16600
H689        H  0.62910865  0.36161100  0.15535252     0.16600
H690        H  0.70294742  0.41067495  0.14575243     0.16600
H691        H  0.66302745  0.11201798  0.10900863     0.14900
H692        H  0.61817874  0.17616120  0.17716477     0.14900
H693        H  0.92006395  0.28901171  0.06778610     0.14900
H694        H  0.88214076  0.33684839  0.16769667     0.14900
H695        H  0.78579867  0.21907240  0.06124419     0.28200
H696        H  0.74769781  0.26816841  0.16574923     0.28200
C697        C  0.49407270  0.24274335  0.25359596    -0.00500
C698        C  0.75125173  0.51011154  0.25183181    -0.00500
C699        C  0.49646852  0.25413319  0.75070595    -0.00500
C700        C  0.74789469  0.49720673  0.75424502    -0.00500
C701        C  0.66479344  0.49389043  0.22403367    -0.14400
C702        C  0.70790817  0.50499559  0.20382652    -0.29600
H703        H  0.65879841  0.49110321  0.27833472     0.14600
H704        H  0.71456801  0.00430845  0.14749395     0.15200
C705        C  0.83950158  0.51815320  0.22326834    -0.14400
C706        C  0.79393254  0.51760067  0.20422427    -0.29600
H707        H  0.84916853  0.00965430  0.27774931     0.14600
H708        H  0.78706787  0.52071767  0.14926284     0.15200
C709        C  0.97874817  0.32996084  0.22282350    -0.14400
C710        C  0.98573886  0.28607020  0.20203523    -0.29600
H711        H  0.97543511  0.33413260  0.27675856     0.14600
H712        H  0.48734101  0.28401464  0.15105445     0.15200
C713        C  0.00159280  0.19932425  0.20210201    -0.14400
C714        C  0.00968215  0.15359205  0.22230295    -0.29600
H715        H  0.00009013  0.20700651  0.14696456     0.14600
H716        H  0.50988268  0.14511933  0.28071427     0.15200
C717        C  0.59168757  0.30253053  0.05891288    -0.11300
C718        C  0.61440989  0.27768363  0.09881932    -0.12800
C719        C  0.81429474  0.41838928  0.06322012    -0.11300
C720        C  0.79360140  0.39509576  0.10323284    -0.12800
C721        C  0.89062374  0.23251471  0.96266160    -0.11300
C722        C  0.91225232  0.19649485  0.96302481    -0.12800
C723        C  0.71641337  0.11271468  0.99234496    -0.11300
C724        C  0.68964902  0.08451337  0.98103847    -0.12800
C725        C  0.83464202  0.01170733  0.77469786    -0.14400
C726        C  0.79131785  0.00358852  0.79769896    -0.29600
H727        H  0.84060285  0.01274601  0.71985599     0.14600
H728        H  0.78849160  0.49730641  0.85464830     0.15200
C729        C  0.66017326  0.98681095  0.77813607    -0.14400
C730        C  0.70503896  0.99029374  0.79929239    -0.29600
H731        H  0.65304915  0.48867149  0.72499177     0.14600
H732        H  0.71153972  0.98792444  0.85435824     0.15200
C733        C  0.50545188  0.20864855  0.79670717    -0.14400
C734        C  0.00761893  0.16440687  0.77361944    -0.29600
H735        H  0.50775632  0.21214987  0.85176259     0.14600
H736        H  0.00373336  0.15929938  0.71916431     0.15200
C737        C  0.48924514  0.29540675  0.79919326    -0.14400
C738        C  0.98398247  0.34169984  0.77761415    -0.29600
H739        H  0.99142287  0.28768854  0.85282792     0.14600
H740        H  0.48694727  0.35169706  0.72571441     0.15200
C741        C  0.90889453  0.24413915  0.72613012    -0.14400
C742        C  0.95260880  0.25067498  0.70392579    -0.29600
H743        H  0.90246209  0.24357512  0.78084161     0.14600
H744        H  0.95703576  0.25258961  0.64869088     0.15200
C745        C  0.58396715  0.26497511  0.72266176    -0.14400
C746        C  0.53874457  0.26218625  0.70276343    -0.29600
H747        H  0.59253304  0.26076354  0.77707593     0.14600
H748        H  0.53186226  0.26498919  0.64779586     0.15200
C749        C  0.73450812  0.08800316  0.72922023    -0.14400
C750        C  0.73832689  0.04402524  0.70673344    -0.29600
H751        H  0.73763641  0.09293497  0.78381310     0.14600
H752        H  0.73663613  0.04072409  0.65159082     0.15200
C753        C  0.76175972  0.41065007  0.72437151    -0.14400
C754        C  0.75551762  0.45667445  0.70495826    -0.29600
H755        H  0.76136116  0.40055219  0.77877218     0.14600
H756        H  0.75439175  0.46543716  0.65008998     0.15200
C757        C  0.85598506  0.01806546  0.54032872    -0.11300
C758        C  0.83566778  0.05481864  0.53532047    -0.12800
C759        C  0.53240664  0.13995652  0.50424723    -0.11300
C760        C  0.55870035  0.16680041  0.52233922    -0.12800
C761        C  0.62927968  0.47526678  0.40416737    -0.11300
C762        C  0.65270560  0.44856742  0.44075412    -0.12800
C763        C  0.93292487  0.33274268  0.44611111    -0.11300
C764        C  0.95234123  0.35550376  0.40392444    -0.12800
C765        C  0.57976151  0.26119281  0.27984754    -0.14400
C766        C  0.53712160  0.24912753  0.30131446    -0.29600
H767        H  0.58488763  0.26413303  0.22541991     0.14600
H768        H  0.53259923  0.24534495  0.35645711     0.15200
C769        C  0.90531200  0.23273619  0.27685148    -0.14400
C770        C  0.95067983  0.23404777  0.29666430    -0.29600
H771        H  0.89670244  0.23625763  0.22242590     0.14600
H772        H  0.95727907  0.23210059  0.35169935     0.15200
C773        C  0.76407651  0.42091196  0.27828412    -0.14400
C774        C  0.75915778  0.46494132  0.29898124    -0.29600
H775        H  0.76466670  0.41664405  0.22426390     0.14600
H776        H  0.75815817  0.46827852  0.35407993     0.15200
C777        C  0.73834392  0.09656819  0.27954771    -0.14400
C778        C  0.74387370  0.05037082  0.29873823    -0.29600
H779        H  0.73998448  0.10668978  0.22527723     0.14600
H780        H  0.74338573  0.04236915  0.35374093     0.15200
O781        O  0.74107950  0.67698932  0.31159235    -0.78100
O782        O  0.74179711  0.67030185  0.70851863    -0.79700
O783        O  0.77505583  0.60135231  0.52932979    -0.76700
O784        O  0.63996264  0.66061258  0.52697782    -0.75100
O785        O  0.60170487  0.73184174  0.52538587    -0.76900
O786        O  0.84620477  0.63226939  0.52933311    -0.77800
O787        O  0.72247534  0.62301585  0.62309762    -0.79100
O788        O  0.72471980  0.62460031  0.39903803    -0.79400
Eu789      Eu  0.72299551  0.66592567  0.51068866     2.39200
O790        O  0.69468767  0.72579530  0.57666606    -0.86900
O791        O  0.78072824  0.69323281  0.43746542    -0.90500
C792        C  0.73344518  0.63515680  0.33481476     1.04200
C793        C  0.73243979  0.62986582  0.68634150     1.04000
C794        C  0.81872479  0.59824316  0.53549743     1.03900
C795        C  0.60374603  0.68770091  0.53229938     1.01800
H796        H  0.79549829  0.66937694  0.61302603     0.31500
O797        O  0.78074853  0.69346510  0.58314444    -0.99300
H798        H  0.66777635  0.70921157  0.41173293     0.31600
O799        O  0.69103754  0.72481393  0.43608758    -1.01900
O800        O  0.75720807  0.83054861  0.70167655    -0.79100
O801        O  0.75652211  0.83644561  0.31000044    -0.78600
O802        O  0.88140169  0.72568204  0.62044639    -0.77100
O803        O  0.61836100  0.78422614  0.61416328    -0.80400
O804        O  0.61576230  0.77847345  0.39327295    -0.78300
O805        O  0.87975284  0.71708401  0.39825863    -0.76900
O806        O  0.86318126  0.84149925  0.48999665    -0.78400
O807        O  0.72286755  0.90327616  0.48327184    -0.80400
O808        O  0.89984531  0.76915843  0.49577207    -0.77100
O809        O  0.65261449  0.87046426  0.48045999    -0.79800
O810        O  0.83095422  0.74474610  0.70484886    -0.75500
O811        O  0.82824466  0.74116607  0.31154188    -0.75500
O812        O  0.66724387  0.76243521  0.30882921    -0.75200
O813        O  0.66941583  0.75920853  0.70087168    -0.78700
O814        O  0.77707461  0.88171760  0.61453814    -0.78100
O815        O  0.77688712  0.88416098  0.39420898    -0.76400
Eu816      Eu  0.75007976  0.75162316  0.65338096     2.39800
Eu817      Eu  0.74836333  0.75435541  0.36181534     2.39600
Eu818      Eu  0.83839343  0.71873454  0.51050668     2.38400
Eu819      Eu  0.66045058  0.78506646  0.50308952     2.39900
Eu820      Eu  0.77795334  0.83944390  0.50588807     2.39800
O821        O  0.71981890  0.81202667  0.43391765    -0.90800
O822        O  0.80860438  0.77837762  0.57941288    -0.89700
C823        C  0.76629157  0.87205540  0.67787439     1.04300
C824        C  0.76635435  0.87698213  0.33122009     1.03000
C825        C  0.87254745  0.73676515  0.68247715     1.02400
C826        C  0.62776529  0.77049581  0.67754260     1.04400
C827        C  0.62516849  0.76867266  0.33071104     1.03400
C828        C  0.86995956  0.72893628  0.33421182     1.02200
C829        C  0.89873611  0.81297668  0.48439824     1.02300
C830        C  0.67920404  0.90500371  0.47309592     1.02900
H831        H  0.82760798  0.79311845  0.40806749     0.32300
O832        O  0.80481212  0.77981155  0.43749093    -1.03000
H833        H  0.70280190  0.83654561  0.60023194     0.34300
O834        O  0.71775733  0.81192073  0.57603569    -1.05600
N835        N  0.96700844  0.53211961  0.50217625    -0.34600
N836        N  0.54035475  0.04096948  0.39750508    -0.55200
N837        N  0.01934494  0.95143885  0.34173623    -0.34600
N838        N  0.94002005  0.94847905  0.44992978    -0.55200
C839        C  0.49264171  0.56869274  0.53685471     0.29000
C840        C  0.93918440  0.51353809  0.54921001     0.29000
C841        C  0.56911190  0.94890721  0.34517802     0.29000
C842        C  0.00671507  0.90733882  0.35010825     0.29000
C843        C  0.53968319  0.58475414  0.43598405     0.37600
C844        C  0.57883894  0.03121727  0.36300603     0.37600
C845        C  0.89913668  0.46783558  0.46982928     0.37600
C846        C  0.93149653  0.92923355  0.39057680     0.37600
C847        C  0.48480134  0.56986604  0.60668380    -0.19900
C848        C  0.94709255  0.53217781  0.61215413    -0.19900
C849        C  0.58445755  0.90252603  0.34936103    -0.19900
C850        C  0.04471441  0.87681494  0.34626886    -0.19900
C851        C  0.57503315  0.60669008  0.40194511    -0.20900
C852        C  0.60495828  0.06987729  0.35647066    -0.20900
C853        C  0.86142678  0.45251581  0.43508353    -0.20900
C854        C  0.88427280  0.92953292  0.37841997    -0.20900
C855        C  0.51928532  0.59837780  0.49738066    -0.16300
C856        C  0.89940711  0.49226029  0.52966873    -0.16300
C857        C  0.96269357  0.89541939  0.37008326    -0.16300
C858        C  0.59648171  0.98579061  0.36113714    -0.16300
H859        H  0.49826212  0.59360339  0.64201825     0.16600
H860        H  0.92766512  0.52672991  0.65853667     0.16600
H861        H  0.61964567  0.88850128  0.35423963     0.16600
H862        H  0.04572869  0.83951353  0.35395716     0.16600
H863        H  0.58765027  0.64048748  0.41020599     0.14900
H864        H  0.63945917  0.07151834  0.33651785     0.14900
H865        H  0.82558038  0.45573535  0.44935407     0.14900
H866        H  0.86675248  0.91227515  0.33848634     0.14900
H867        H  0.96205691  0.53218097  0.44910593     0.28200
H868        H  0.99779178  0.98116466  0.34537348     0.28200
O869        O  0.99203598  0.92110886  0.80509793    -0.78100
O870        O  0.99082311  0.91193000  0.19710171    -0.79700
O871        O  0.53140826  0.84737223  0.01812045    -0.76700
O872        O  0.89019490  0.90772833  0.02532215    -0.75100
O873        O  0.85056333  0.97839328  0.01394661    -0.76900
O874        O  0.60129854  0.88081076  0.01886574    -0.77800
O875        O  0.97345298  0.86387720  0.11179249    -0.79100
O876        O  0.97312974  0.86932105  0.89200318    -0.79400
Eu877      Eu  0.97378776  0.90995732  0.00184819     2.39200
O878        O  0.94520211  0.96993439  0.06756605    -0.86900
O879        O  0.53217991  0.93978845  0.93077938    -0.90500
C880        C  0.98335714  0.87952253  0.82860194     1.04200
C881        C  0.98198629  0.87115735  0.17531563     1.04000
C882        C  0.57530157  0.84571047  0.02502624     1.03900
C883        C  0.85382051  0.93505159  0.02991525     1.01800
H884        H  0.54794625  0.91440244  0.10596266     0.31500
O885        O  0.53295909  0.93867810  0.07656394    -0.99300
H886        H  0.91751295  0.95469287  0.90342912     0.31600
O887        O  0.94120466  0.96959509  0.92799051    -1.01900
O888        O  0.00807273  0.57159321  0.19869569    -0.79100
O889        O  0.00561063  0.58190760  0.80244302    -0.78600
O890        O  0.63428210  0.97606636  0.11181033    -0.77100
O891        O  0.86998336  0.02953561  0.10856086    -0.80400
O892        O  0.86632549  0.52779302  0.88625193    -0.78300
O893        O  0.63044686  0.46593187  0.89185100    -0.76900
O894        O  0.61487430  0.58610533  0.98973950    -0.78400
O895        O  0.97457792  0.64854317  0.98054303    -0.80400
O896        O  0.65146159  0.51417068  0.98768893    -0.77100
O897        O  0.90396853  0.61695118  0.97357982    -0.79800
O898        O  0.58321439  0.99324733  0.19621934    -0.75500
O899        O  0.57911910  0.49047105  0.80510517    -0.75500
O900        O  0.91705031  0.51048711  0.80122174    -0.75200
O901        O  0.92115469  0.00460236  0.19521466    -0.78700
O902        O  0.02536829  0.62425673  0.11212183    -0.78100
O903        O  0.02643223  0.62835540  0.88817708    -0.76400
Eu904      Eu  0.00060058  0.99448292  0.14526083     2.39800
Eu905      Eu  0.99819389  0.50014650  0.85344887     2.39600
Eu906      Eu  0.58968426  0.96661772  0.00298375     2.38400
Eu907      Eu  0.91056623  0.03009483  0.99514513     2.39900
Eu908      Eu  0.02686370  0.58393247  0.00032479     2.39800
O909        O  0.96970517  0.55762454  0.92631842    -0.90800
O910        O  0.56012473  0.52300647  0.07429921    -0.89700
C911        C  0.01617384  0.61355307  0.17599187     1.04300
C912        C  0.01553111  0.62195683  0.82495834     1.03000
C913        C  0.62514947  0.98724850  0.17379932     1.02400
C914        C  0.87963215  0.01687395  0.17245017     1.04400
C915        C  0.87531122  0.51801451  0.82373353     1.03400
C916        C  0.62089423  0.47919721  0.82838912     1.02200
C917        C  0.65065990  0.55828201  0.98382673     1.02300
C918        C  0.93122288  0.65112452  0.96949855     1.04900
H919        H  0.57876625  0.53990620  0.90259865     0.32300
O920        O  0.55601591  0.52563777  0.93091317    -1.03000
H921        H  0.95258371  0.58040531  0.09555488     0.34300
O922        O  0.96732373  0.55615174  0.07041641    -1.05600
N923        N  0.78396550  0.71126895  0.00092815    -0.34600
N924        N  0.70943219  0.70967563  0.08604165    -0.55200
N925        N  0.72930297  0.79346871  0.15846357    -0.34600
N926        N  0.80805706  0.79331815  0.05658486    -0.55200
C927        C  0.76033965  0.67840045  0.97317690     0.29000
C928        C  0.80888286  0.73113835  0.95118010     0.29000
C929        C  0.68289752  0.79700409  0.15424704     0.29000
C930        C  0.74355809  0.83708135  0.15210163     0.29000
C931        C  0.70970319  0.66517665  0.07004017     0.37600
C932        C  0.67433656  0.71666797  0.12859847     0.37600
C933        C  0.84752483  0.78001133  0.02683465     0.37600
C934        C  0.81936015  0.81379984  0.11390372     0.37600
C935        C  0.76985986  0.67661915  0.90395341    -0.19900
C936        C  0.80099548  0.71030312  0.88989949    -0.19900
C937        C  0.66763447  0.84330439  0.15461851    -0.19900
C938        C  0.70614863  0.86876147  0.15178753    -0.19900
C939        C  0.67511726  0.64290755  0.10546313    -0.20900
C940        C  0.65147139  0.67638474  0.14051406    -0.20900
C941        C  0.88515580  0.79246832  0.06483816    -0.20900
C942        C  0.86705859  0.81482423  0.11982733    -0.20900
C943        C  0.73288785  0.64938567  0.01217839    -0.16300
C944        C  0.84776409  0.75491188  0.96760030    -0.16300
C945        C  0.78882817  0.84766419  0.13679297    -0.16300
C946        C  0.65535980  0.76092825  0.13574135    -0.16300
H947        H  0.75706288  0.65272631  0.86834575     0.16600
H948        H  0.81872129  0.71619655  0.84208387     0.16600
H949        H  0.63239963  0.85739637  0.15111925     0.16600
H950        H  0.70632307  0.90608426  0.14458613     0.16600
H951        H  0.66517585  0.60763668  0.10182828     0.14900
H952        H  0.61967070  0.67243076  0.16801198     0.14900
H953        H  0.92130962  0.78726237  0.05314102     0.14900
H954        H  0.88625740  0.83310018  0.15681486     0.14900
H955        H  0.78940643  0.71340759  0.05365883     0.28200
H956        H  0.75040528  0.76319124  0.15830598     0.28200
C957        C  0.49946227  0.74257310  0.25383998    -0.00500
C958        C  0.75193183  0.00829136  0.25122935    -0.00500
C959        C  0.50068806  0.75446084  0.75357223    -0.00500
C960        C  0.74738507  0.99851804  0.75219987    -0.00500
C961        C  0.66539654  0.99460091  0.22247010    -0.14400
C962        C  0.70911867  0.00290528  0.20249171    -0.29600
H963        H  0.65925548  0.99460527  0.27642275     0.14600
H964        H  0.71261526  0.50876699  0.14872905     0.15200
C965        C  0.84030469  0.01478214  0.22351437    -0.14400
C966        C  0.79483284  0.01505720  0.20414377    -0.29600
H967        H  0.84847665  0.51346529  0.27751583     0.14600
H968        H  0.78816933  0.01871163  0.14915718     0.15200
C969        C  0.98328295  0.82904229  0.22557772    -0.14400
C970        C  0.98918721  0.78467711  0.20595446    -0.29600
H971        H  0.98141808  0.83385697  0.27951176     0.14600
H972        H  0.49410395  0.78395327  0.15133258     0.15200
C973        C  0.00523297  0.69788527  0.20701434    -0.14400
C974        C  0.01261653  0.65197110  0.22667746    -0.29600
H975        H  0.00376378  0.70561068  0.15191367     0.14600
H976        H  0.51395386  0.64476196  0.28017132     0.15200
C977        C  0.59589706  0.80252051  0.05126353    -0.11300
C978        C  0.61775869  0.77559509  0.08956460    -0.12800
C979        C  0.81614727  0.91668751  0.06487589    -0.11300
C980        C  0.79666141  0.89176125  0.10411944    -0.12800
C981        C  0.88939372  0.73151529  0.94944382    -0.11300
C982        C  0.91228286  0.69617473  0.95246023    -0.12800
C983        C  0.71937264  0.60773129  0.98506176    -0.11300
C984        C  0.69302019  0.57878129  0.97543453    -0.12800
C985        C  0.83461070  0.51260974  0.77592010    -0.14400
C986        C  0.79203515  0.50179265  0.79937155    -0.29600
H987        H  0.83999028  0.51574137  0.72094965     0.14600
H988        H  0.78713646  0.00112450  0.85297167     0.15200
C989        C  0.66094256  0.48430651  0.77960213    -0.14400
C990        C  0.70572229  0.48788702  0.80121635    -0.29600
H991        H  0.65205842  0.99062013  0.72355101     0.14600
H992        H  0.71221064  0.48496173  0.85628798     0.15200
C993        C  0.50920069  0.70872317  0.79903361    -0.14400
C994        C  0.01231941  0.66428094  0.77565985    -0.29600
H995        H  0.51141990  0.71188714  0.85417371     0.14600
H996        H  0.00859599  0.65932700  0.72113517     0.15200
C997        C  0.49369608  0.79569389  0.80159123    -0.14400
C998        C  0.98682583  0.84083713  0.77921322    -0.29600
H999        H  0.99521481  0.78729315  0.85507540     0.14600
H1000       H  0.48920970  0.85127285  0.72676336     0.15200
C1001       C  0.91322927  0.74188172  0.73054912    -0.14400
C1002       C  0.95655170  0.74937706  0.70728293    -0.29600
H1003       H  0.90730502  0.74102309  0.78541009     0.14600
H1004       H  0.96049423  0.75167096  0.65196026     0.15200
C1005       C  0.58792858  0.76576434  0.72694211    -0.14400
C1006       C  0.54302439  0.76240188  0.70614426    -0.29600
H1007       H  0.59610171  0.76190966  0.78150879     0.14600
H1008       H  0.53649230  0.76484176  0.65108396     0.15200
C1009       C  0.73592533  0.58714656  0.73482739    -0.14400
C1010       C  0.73851218  0.54348073  0.71087801    -0.29600
H1011       H  0.73990452  0.59130836  0.78949638     0.14600
H1012       H  0.73597560  0.54098627  0.65565610     0.15200
C1013       C  0.76217364  0.91130976  0.72643653    -0.14400
C1014       C  0.75520254  0.95693117  0.70495622    -0.29600
H1015       H  0.76164334  0.90220403  0.78113494     0.14600
H1016       H  0.75422721  0.96460458  0.64981243     0.15200
C1017       C  0.85850242  0.51641856  0.54870780    -0.11300
C1018       C  0.83730996  0.55266608  0.54881331    -0.12800
C1019       C  0.53529963  0.63810631  0.52759118    -0.11300
C1020       C  0.56194592  0.66615133  0.54064711    -0.12800
C1021       C  0.63605768  0.97285465  0.40444110    -0.11300
C1022       C  0.65932612  0.94743211  0.44300068    -0.12800
C1023       C  0.93774575  0.83026374  0.45123765    -0.11300
C1024       C  0.95759865  0.85294247  0.40930177    -0.12800
C1025       C  0.58509902  0.76204077  0.28138619    -0.14400
C1026       C  0.54262347  0.74856688  0.30166219    -0.29600
H1027       H  0.59080177  0.76691114  0.22702835     0.14600
H1028       H  0.53828332  0.74320534  0.35666129     0.15200
C1029       C  0.90943734  0.73074228  0.28318181    -0.14400
C1030       C  0.95492166  0.73268176  0.30226870    -0.29600
H1031       H  0.90053445  0.73425519  0.22884566     0.14600
H1032       H  0.96183849  0.73082704  0.35723234     0.15200
C1033       C  0.76433232  0.91882511  0.28046249    -0.14400
C1034       C  0.75927436  0.96337568  0.29968253    -0.29600
H1035       H  0.76487997  0.91341619  0.22654127     0.14600
H1036       H  0.75824782  0.96749805  0.35459359     0.15200
C1037       C  0.73638881  0.59725963  0.28316805    -0.14400
C1038       C  0.74352014  0.55117795  0.30093890    -0.29600
H1039       H  0.73609664  0.60804217  0.22898091     0.14600
H1040       H  0.74498415  0.54266580  0.35585746     0.15200
loop_ 
_geom_bond_atom_site_label_1 
_geom_bond_atom_site_label_2 
_geom_bond_distance 
_geom_bond_site_symmetry_2 
_ccdc_geom_bond_type 
O1           C12   1.300       .  A
O1          Eu37   2.510       .  S
O2           C13   1.307       .  A
O2          Eu36   2.546       .  S
O3           C14   1.266       .  A
O3           Eu9   2.330       .  S
O4           C15   1.286       .  A
O4           Eu9   2.432       .  S
O5           C15   1.278       .  A
O5          Eu39   2.406       .  S
O6           C14   1.301       .  A
O6          Eu38   2.514       .  S
O7           C13   1.293       .  A
O7           Eu9   2.470       .  S
O8           C12   1.304       .  A
O8           Eu9   2.535       .  S
Eu9          O19   2.329       .  S
Eu9          O11   2.357       .  S
Eu9          O10   2.333       .  S
Eu9          O17   2.373       .  S
O10         Eu39   2.341       .  S
O10         Eu36   2.361       .  S
O11         Eu37   2.389       .  S
O11         Eu38   2.356       .  S
C12         C257   1.526       .  S
C13         C229   1.511       .  S
C14         C238   1.404       .  S
C15         C240   1.406       .  S
H16          O17   0.963       .  S
O17         Eu38   2.321       .  S
O17         Eu36   2.380       .  S
H18          O19   0.965       .  S
O19         Eu37   2.391       .  S
O19         Eu39   2.380       .  S
O20          C43   1.306       .  A
O20         Eu36   2.542       .  S
O21          C44   1.310       .  A
O21         Eu37   2.559       .  S
O22          C45   1.298       .  A
O22         Eu38   2.503       .  S
O23          C46   1.297       .  A
O23         Eu39   2.492       .  S
O24          C47   1.296       .  A
O24         Eu39   2.495       .  S
O25          C48   1.299       .  A
O25         Eu38   2.506       .  S
O26          C49   1.298       .  A
O26         Eu40   2.496       .  S
O27          C50   1.277       .  A
O27         Eu40   2.398       .  S
O28          C49   1.274       .  A
O28         Eu38   2.368       .  S
O29          C50   1.295       .  A
O29         Eu39   2.476       .  S
O30          C45   1.305       .  A
O30         Eu36   2.537       .  S
O31          C48   1.311       .  A
O31         Eu37   2.563       .  S
O32          C47   1.309       .  A
O32         Eu37   2.562       .  S
O33          C46   1.305       .  A
O33         Eu36   2.537       .  S
O34          C43   1.298       .  A
O34         Eu40   2.506       .  S
O35          C44   1.291       .  A
O35         Eu40   2.461       .  S
Eu36         O54   2.385       .  S
Eu36         O42   2.372       .  S
Eu37         O41   2.368       .  S
Eu37         O52   2.356       .  S
Eu38         O52   2.370       .  S
Eu38         O42   2.383       .  S
Eu39         O41   2.348       .  S
Eu39         O54   2.370       .  S
Eu40         O41   2.375       .  S
Eu40         O52   2.343       .  S
Eu40         O54   2.372       .  S
Eu40         O42   2.343       .  S
C43         C233   1.527       .  S
C44         C253   1.518       .  S
C45         C221   1.523       .  S
C46         C225   1.521       .  S
C47         C245   1.521       .  S
C48         C249   1.530       .  S
C49         C243   1.409       .  S
C50         C242   1.418       .  S
H51          O52   0.963       .  S
H53          O54   0.965       .  S
N55          C60   1.340       .  A
N55         C579   1.333       .  A
N55          H87   1.044       .  S
N56          C64   1.340       .  A
N56         C323   1.342       .  A
N57          C62   1.349       .  A
N57         C581   1.347       .  A
N57          H88   1.044       .  S
N58          C66   1.337       .  A
N58         C325   1.339       .  A
C59         N575   1.336       .  A
C59          C67   1.387       .  A
C59          C75   1.395   1_655  A
C60          C76   1.391   1_545  A
C60          C68   1.389       .  A
C61         N577   1.346       .  A
C61          C69   1.391       .  A
C61          C78   1.404       .  A
C62          C77   1.397       .  A
C62          C70   1.384       .  A
C63         N316   1.342       .  A
C63          C75   1.411       .  A
C63          C71   1.391       .  A
C64          C78   1.383       .  A
C64          C72   1.382       .  A
C65         N318   1.335       .  A
C65          C73   1.379       .  A
C65          C76   1.391       .  A
C66          C74   1.390       .  A
C66          C77   1.383       .  A
C67         C588   1.382       .  A
C67          H79   1.082       .  S
C68         C587   1.376       .  A
C68          H80   1.083       .  S
C69         C590   1.368       .  A
C69          H81   1.082       .  S
C70         C589   1.369       .  A
C70          H82   1.081       .  S
C71         C332   1.377       .  A
C71          H83   1.080       .  S
C72         C331   1.376       .  A
C72          H84   1.083       .  S
C73         C334   1.381       .  A
C73          H85   1.081       .  S
C74         C333   1.379       .  A
C74          H86   1.082       .  S
C75         C239   1.419       .  S
C76         C237   1.407   1_565  S
C77         C244   1.425       .  S
C78         C241   1.434       .  S
O89         C100   1.303       .  A
O89        Eu385   2.527       .  S
O90         C101   1.311       .  A
O90        Eu124   2.568       .  S
O91         C102   1.276       .  A
O91        Eu617   2.393   1_455  S
O92         C103   1.296       .  A
O92         Eu97   2.487       .  S
O93         C103   1.275       .  A
O93        Eu127   2.375   1_554  S
O94         C102   1.296       .  A
O94        Eu126   2.487       .  S
O95         C101   1.290       .  A
O95         Eu97   2.453       .  S
O96         C100   1.300       .  A
O96         Eu97   2.514   1_556  S
Eu97        O611   2.403       .  S
Eu97        O107   2.338   1_554  S
Eu97         O98   2.342       .  S
Eu97        O619   2.362   1_554  S
Eu97        O625   2.384       .  S
O98        Eu127   2.351   1_554  S
O98        Eu124   2.353       .  S
O99        Eu126   2.356   1_556  S
O99        Eu617   2.365   1_456  S
O99        Eu905   2.378   1_455  S
C100        C218   1.526       .  S
C101        C189   1.514       .  S
C102        C197   1.418       .  S
C103        C199   1.412       .  S
H104        O105   0.964       .  S
O105       Eu126   2.348       .  S
O105       Eu617   2.383   1_455  S
O105       Eu644   2.380       .  S
H106        O107   0.965       .  S
O107       Eu127   2.391       .  S
O107       Eu385   2.380       .  S
O108        C131   1.304       .  A
O108       Eu384   2.535   1_545  S
O109        C132   1.305       .  A
O109       Eu125   2.533       .  S
O110        C133   1.297       .  A
O110       Eu126   2.509       .  S
O111        C134   1.302       .  A
O111       Eu127   2.524   1_554  S
O112        C135   1.296       .  A
O112       Eu387   2.492       .  S
O113        C136   1.297       .  A
O113       Eu386   2.495   1_556  S
O114        C137   1.291       .  A
O114       Eu648   2.458       .  S
O115        C138   1.271       .  A
O115       Eu128   2.356   1_556  S
O116        C137   1.274       .  A
O116       Eu386   2.370   1_546  S
O117        C138   1.298       .  A
O117       Eu387   2.499       .  S
O118        C133   1.307       .  A
O118       Eu644   2.551       .  S
O119        C136   1.309       .  A
O119       Eu645   2.553   1_455  S
O120        C135   1.307       .  A
O120       Eu125   2.550       .  S
O121        C134   1.305       .  A
O121       Eu124   2.534       .  S
O122        C131   1.302       .  A
O122       Eu128   2.531       .  S
O123        C132   1.296       .  A
O123       Eu128   2.483   1_556  S
Eu124       O368   2.535       .  S
Eu124       O638   2.542       .  S
Eu124       O625   2.379       .  S
Eu124       O402   2.389       .  S
Eu124       O910   2.373       .  S
Eu125       O349   2.520   1_545  S
Eu125       O639   2.546   1_545  S
Eu125       O129   2.370       .  S
Eu125       O879   2.381   1_545  S
Eu125       O367   2.383   1_545  S
Eu125       O660   2.369       .  S
Eu126       O373   2.496   1_554  S
Eu126       O376   2.368   1_554  S
Eu126       O400   2.360   1_554  S
Eu126       O390   2.371       .  S
Eu127       O372   2.500       .  S
Eu127       O377   2.514       .  S
Eu127       O389   2.332       .  S
Eu127       O402   2.355   1_556  S
Eu128       O634   2.464   1_554  S
Eu128       O129   2.369   1_554  S
Eu128       O142   2.369       .  S
Eu128       O660   2.342   1_554  S
Eu128       O650   2.336       .  S
O129       Eu387   2.333       .  S
O130       Eu904   2.370   1_545  S
O130       Eu386   2.370   1_545  S
O130       Eu648   2.335   1_554  S
C131        C194   1.531       .  S
C132        C214   1.516       .  S
C133        C181   1.530       .  S
C134        C185   1.531       .  S
C135        C205   1.519       .  S
C136        C209   1.522       .  S
C137        C204   1.395       .  S
C138        C202   1.410       .  S
H139        O140   0.962       .  S
O140       Eu645   2.367   1_445  S
O140       Eu386   2.367   1_546  S
O140       Eu648   2.338       .  S
H141        O142   0.965       .  S
O142       Eu384   2.389   1_545  S
O142       Eu387   2.356   1_554  S
N143        C148   1.341   1_554  A
N143        C147   1.334   1_554  A
N143        H175   1.043       .  S
N144        C151   1.339       .  A
N144        C152   1.338       .  A
N145        C150   1.346       .  A
N145        C149   1.346       .  A
N145        H176   1.044       .  S
N146        C153   1.340       .  A
N146        C154   1.336       .  A
C147        C155   1.387       .  A
C147        C163   1.392   1_556  A
C148        C164   1.395       .  A
C148        C156   1.390       .  A
C149        C157   1.391       .  A
C149        C166   1.406       .  A
C150        C165   1.398       .  A
C150        C158   1.384       .  A
C151        C163   1.408       .  A
C151        C159   1.392       .  A
C152        C166   1.381       .  A
C152        C160   1.381       .  A
C153        C161   1.385       .  A
C153        C164   1.398   1_554  A
C154        C162   1.389       .  A
C154        C165   1.382       .  A
C155        C156   1.380       .  A
C155        H167   1.082       .  S
C156        H168   1.083       .  S
C157        C158   1.372       .  A
C157        H169   1.082       .  S
C158        H170   1.080       .  S
C159        C160   1.378       .  A
C159        H171   1.081       .  S
C160        H172   1.083       .  S
C161        C162   1.381       .  A
C161        H173   1.082       .  S
C162        H174   1.082       .  S
C163        C203   1.410   1_554  S
C164        C201   1.416       .  S
C165        C200   1.426       .  S
C166        C198   1.434       .  S
C177        C246   1.569   1_655  S
C177        C710   1.560       .  S
C177        C713   1.573   1_655  S
C177        C770   1.572       .  S
C178        C182   1.578       .  S
C178        C186   1.576       .  S
C178        C254   1.566       .  S
C178        C518   1.578       .  S
C179        C213   1.562   1_655  S
C179        C217   1.567       .  S
C179        C226   1.566   1_655  S
C179        C742   1.561       .  S
C180        C234   1.573       .  S
C180        C466   1.568       .  S
C180        C470   1.570       .  S
C180        C490   1.556       .  S
C181        C182   1.367       .  D
C181        H183   1.074       .  S
C182        H444   1.086       .  S
H184        C442   1.086       .  S
C185        C186   1.370       .  D
C185        H447   1.086       .  S
C186        H188   1.086       .  S
H187        C445   1.085       .  S
C189        C190   1.364       .  D
C189        H191   1.072       .  S
C190        C697   1.561       .  S
C190        H712   1.086       .  S
H192        C710   1.086       .  S
C193        C697   1.576       .  S
C193        C194   1.369       .  D
C193        H195   1.086       .  S
C194        H716   1.086       .  S
H196        C714   1.086       .  S
C197        C198   1.197       .  T
C199        C200   1.193       .  T
C201        C202   1.190       .  T
C203        C204   1.181       .  T
C205        C206   1.370       .  D
C205        H207   1.086       .  S
C206        C440   1.563   1_545  S
C206        H468   1.086   1_545  S
H208        C466   1.086       .  S
C209        C210   1.372       .  D
C209        H471   1.086       .  S
C210        C440   1.566       .  S
C210        H212   1.086       .  S
H211        C469   1.086       .  S
C213        C734   1.369       .  D
C213        H215   1.086       .  S
C214        C733   1.366       .  D
C214        H216   1.086       .  S
C217        C738   1.366       .  D
C217        H739   1.086       .  S
C218        C737   1.367       .  D
C218        H740   1.086       .  S
H219        C737   1.086       .  S
H220        C738   1.086       .  S
C221        C222   1.370       .  D
C221        H223   1.086       .  S
C222        C699   1.569       .  S
C222        H224   1.086       .  S
C225        C226   1.367       .  D
C225        H227   1.086       .  S
C226        H228   1.086       .  S
C229        C230   1.367       .  D
C229        H231   1.085       .  S
C230        C440   1.554   1_545  S
C230        H232   1.086       .  S
C233        C234   1.369       .  D
C233        H235   1.085       .  S
C234        H236   1.086       .  S
C237        C238   1.186       .  T
C239        C240   1.187       .  T
C241        C242   1.197       .  T
C243        C244   1.192       .  T
C245        C246   1.367       .  D
C245        H247   1.075       .  S
C246        H248   1.086       .  S
C249        C250   1.373       .  D
C249        H251   1.085       .  S
C250        C697   1.574       .  S
C250        H252   1.086       .  S
C253        C254   1.361       .  D
C253        H255   1.068       .  S
C254        H256   1.086       .  S
C257        C258   1.363       .  D
C257        H259   1.085       .  S
C258        C438   1.572       .  S
C258        H260   1.086       .  S
O261        C272   1.302       .  A
O261       Eu297   2.523       .  S
O262        C273   1.308       .  A
O262       Eu296   2.553       .  S
O263        C274   1.269       .  A
O263       Eu269   2.351       .  S
O264        C275   1.287       .  A
O264       Eu269   2.438       .  S
O265        C275   1.277       .  A
O265       Eu299   2.395       .  S
O266        C274   1.297       .  A
O266       Eu298   2.495       .  S
O267        C273   1.292       .  A
O267       Eu269   2.461       .  S
O268        C272   1.303       .  A
O268       Eu269   2.534       .  S
Eu269       O279   2.326       .  S
Eu269       O271   2.356       .  S
Eu269       O270   2.340       .  S
Eu269       O277   2.372       .  S
O270       Eu299   2.344       .  S
O270       Eu296   2.358       .  S
O271       Eu297   2.387       .  S
O271       Eu298   2.359       .  S
C272        C517   1.532       .  S
C273        C489   1.513       .  S
C274        C498   1.405       .  S
C275        C500   1.402       .  S
H276        O277   0.963       .  S
O277       Eu298   2.334       .  S
O277       Eu296   2.373       .  S
H278        O279   0.964       .  S
O279       Eu297   2.382       .  S
O279       Eu299   2.383       .  S
O280        C303   1.303       .  A
O280       Eu296   2.527       .  S
O281        C304   1.308       .  A
O281       Eu297   2.553       .  S
O282        C305   1.296       .  A
O282       Eu298   2.489       .  S
O283        C306   1.298       .  A
O283       Eu299   2.498       .  S
O284        C307   1.296       .  A
O284       Eu299   2.496       .  S
O285        C308   1.300       .  A
O285       Eu298   2.512       .  S
O286        C309   1.297       .  A
O286       Eu300   2.498       .  S
O287        C310   1.277       .  A
O287       Eu300   2.397       .  S
O288        C309   1.274       .  A
O288       Eu298   2.376       .  S
O289        C310   1.296       .  A
O289       Eu299   2.484       .  S
O290        C305   1.306       .  A
O290       Eu296   2.539       .  S
O291        C308   1.310       .  A
O291       Eu297   2.560       .  S
O292        C307   1.311       .  A
O292       Eu297   2.572       .  S
O293        C306   1.305       .  A
O293       Eu296   2.535       .  S
O294        C303   1.298       .  A
O294       Eu300   2.501       .  S
O295        C304   1.290       .  A
O295       Eu300   2.459       .  S
Eu296       O314   2.387       .  S
Eu296       O302   2.376       .  S
Eu297       O301   2.372       .  S
Eu297       O312   2.369       .  S
Eu298       O312   2.367       .  S
Eu298       O302   2.378       .  S
Eu299       O301   2.344       .  S
Eu299       O314   2.364       .  S
Eu300       O301   2.376       .  S
Eu300       O312   2.349       .  S
Eu300       O314   2.375       .  S
Eu300       O302   2.338       .  S
C303        C493   1.518       .  S
C304        C513   1.516       .  S
C305        C481   1.519       .  S
C306        C485   1.522       .  S
C307        C505   1.527       .  S
C308        C509   1.532       .  S
C309        C503   1.414       .  S
C310        C502   1.421       .  S
H311        O312   0.963       .  S
H313        O314   0.965       .  S
N315        C320   1.342       .  A
N315        C839   1.335       .  A
N315        H347   1.044       .  S
N316        C324   1.341       .  A
N317        C322   1.351       .  A
N317        C841   1.346       .  A
N317        H348   1.043       .  S
N318        C326   1.331       .  A
C319        N835   1.335       .  A
C319        C327   1.387       .  A
C319        C335   1.392   1_655  A
C320        C336   1.392       .  A
C320        C328   1.388       .  A
C321        N837   1.346       .  A
C321        C329   1.392       .  A
C321        C338   1.405       .  A
C322        C337   1.400       .  A
C322        C330   1.382       .  A
C323        C335   1.410       .  A
C323        C331   1.390       .  A
C324        C338   1.382   1_545  A
C324        C332   1.381       .  A
C325        C333   1.385       .  A
C325        C336   1.396       .  A
C326        C334   1.394       .  A
C326        C337   1.385       .  A
C327        C848   1.381       .  A
C327        H339   1.082       .  S
C328        C847   1.379       .  A
C328        H340   1.081       .  S
C329        C850   1.370       .  A
C329        H341   1.082       .  S
C330        C849   1.368       .  A
C330        H342   1.080       .  S
C331        H343   1.080       .  S
C332        H344   1.083       .  S
C333        H345   1.083       .  S
C334        H346   1.083       .  S
C335        C499   1.416       .  S
C336        C497   1.411       .  S
C337        C504   1.433       .  S
C338        C501   1.435       .  S
O349        C360   1.302       .  A
O350        C361   1.310       .  A
O350       Eu384   2.563       .  S
O351        C362   1.277       .  A
O351       Eu877   2.396   1_455  S
O352        C363   1.295       .  A
O352       Eu357   2.480       .  S
O353        C363   1.275       .  A
O353       Eu387   2.380   1_564  S
O354        C362   1.297       .  A
O354       Eu386   2.489       .  S
O355        C361   1.289       .  A
O355       Eu357   2.449       .  S
O356        C360   1.298       .  A
O356       Eu357   2.502   1_556  S
Eu357       O871   2.400       .  S
Eu357       O367   2.338   1_554  S
Eu357       O879   2.361   1_554  S
Eu357       O358   2.339       .  S
Eu357       O885   2.381       .  S
O358       Eu387   2.349   1_564  S
O358       Eu384   2.352       .  S
O359       Eu877   2.363   1_456  S
O359       Eu645   2.382   1_455  S
O359       Eu386   2.356   1_556  S
C360        C478   1.519       .  S
C361        C449   1.514       .  S
C362        C457   1.421       .  S
C363        C459   1.413       .  S
H364        O365   0.964       .  S
O365       Eu877   2.380   1_455  S
O365       Eu386   2.345       .  S
O365       Eu904   2.378       .  S
H366        O367   0.965       .  S
O367       Eu387   2.387   1_565  S
O368        C391   1.304       .  A
O369        C392   1.306       .  A
O369       Eu385   2.540       .  S
O370        C393   1.298       .  A
O370       Eu386   2.513       .  S
O371        C394   1.301       .  A
O371       Eu387   2.514   1_554  S
O372        C395   1.297       .  A
O373        C396   1.297       .  A
O374        C397   1.290       .  A
O374       Eu908   2.453   1_556  S
O375        C398   1.268       .  A
O375       Eu388   2.338   1_556  S
O376        C397   1.273       .  A
O377        C398   1.302       .  A
O378        C393   1.305       .  A
O378       Eu904   2.539       .  S
O379        C396   1.309       .  A
O379       Eu905   2.558   1_455  S
O380        C395   1.308       .  A
O380       Eu385   2.555       .  S
O381        C394   1.306       .  A
O381       Eu384   2.541   1_545  S
O382        C391   1.303       .  A
O382       Eu388   2.535       .  S
O383        C392   1.294       .  A
O383       Eu388   2.478   1_556  S
Eu384       O898   2.546       .  S
Eu384       O885   2.384       .  S
Eu384       O650   2.371   1_565  S
Eu385       O899   2.548       .  S
Eu385       O619   2.383       .  S
Eu385       O389   2.371       .  S
Eu385       O920   2.369       .  S
Eu388       O894   2.469   1_554  S
Eu388       O389   2.374   1_554  S
Eu388       O920   2.335   1_554  S
Eu388       O402   2.372       .  S
Eu388       O910   2.331       .  S
O390       Eu644   2.366       .  S
O390       Eu908   2.333       .  S
C391        C454   1.532       .  S
C392        C474   1.516       .  S
C393        C441   1.526       .  S
C394        C445   1.530       .  S
C395        C465   1.523       .  S
C396        C469   1.526       .  S
C397        C464   1.392       .  S
C398        C462   1.407       .  S
H399        O400   0.963       .  S
O400       Eu905   2.367   1_455  S
O400       Eu908   2.346   1_556  S
H401        O402   0.965       .  S
N403        C408   1.341   1_554  A
N403        C407   1.334       .  A
N403        H435   1.044       .  S
N404        C411   1.343       .  A
N404        C412   1.340       .  A
N405        C410   1.350       .  A
N405        C409   1.346       .  A
N405        H436   1.043       .  S
N406        C413   1.337       .  A
N406        C414   1.333       .  A
C407        C415   1.388   1_554  A
C407        C423   1.387       .  A
C408        C424   1.392   1_556  A
C408        C416   1.388       .  A
C409        C417   1.390       .  A
C409        C426   1.406       .  A
C410        C425   1.401       .  A
C410        C418   1.384       .  A
C411        C423   1.408       .  A
C411        C419   1.391       .  A
C412        C426   1.388       .  A
C412        C420   1.383       .  A
C413        C421   1.379       .  A
C413        C424   1.390       .  A
C414        C422   1.393       .  A
C414        C425   1.388       .  A
C415        C416   1.373       .  A
C415        H427   1.083       .  S
C416        H428   1.083       .  S
C417        C418   1.367       .  A
C417        H429   1.081       .  S
C418        H430   1.081       .  S
C419        C420   1.375       .  A
C419        H431   1.081       .  S
C420        H432   1.082       .  S
C421        C422   1.380       .  A
C421        H433   1.081       .  S
C422        H434   1.082       .  S
C423        C463   1.411       .  S
C424        C461   1.413   1_554  S
C425        C460   1.431       .  S
C426        C458   1.437       .  S
C437        C970   1.567       .  S
C437        C973   1.575   1_655  S
C437        C506   1.573   1_655  S
C437       C1030   1.576       .  S
C438        C442   1.573       .  S
C438        C446   1.575       .  S
C438        C514   1.563   1_545  S
C439        C473   1.557       .  S
C439        C477   1.563   1_455  S
C439       C1002   1.559   1_455  S
C439        C486   1.567       .  S
C440        C494   1.564       .  S
C441        C442   1.364   1_565  D
C441        H443   1.074       .  S
C445        C446   1.370       .  D
C446        H448   1.086       .  S
C449        C450   1.360       .  D
C449        H451   1.070       .  S
C450        C957   1.559       .  S
C450        H972   1.085       .  S
H452        C970   1.086       .  S
C453        C957   1.577       .  S
C453        C454   1.369       .  D
C453        H455   1.086       .  S
C454        H976   1.085       .  S
H456        C974   1.086       .  S
C457        C458   1.199       .  T
C459        C460   1.194       .  T
C461        C462   1.187       .  T
C463        C464   1.180   1_554  T
C465        C466   1.373       .  D
C465        H467   1.086       .  S
C469        C470   1.374       .  D
C470        H472   1.086       .  S
C473        C994   1.367       .  D
C473        H475   1.086       .  S
C474        C993   1.367       .  D
C474        H476   1.085       .  S
C477        C998   1.364       .  D
C477        H999   1.086       .  S
C478        C997   1.365       .  D
C478       H1000   1.086       .  S
H479        C997   1.086       .  S
H480        C998   1.086       .  S
C481        C482   1.369       .  D
C481        H483   1.086       .  S
C482        C959   1.562       .  S
C482        H484   1.086       .  S
C485        C486   1.368       .  D
C485        H487   1.086       .  S
C486        H488   1.086       .  S
C489        C490   1.370       .  D
C489        H491   1.086       .  S
C490        H492   1.086       .  S
C493        C494   1.365       .  D
C493        H495   1.086       .  S
C494        H496   1.086       .  S
C497        C498   1.188       .  T
C499        C500   1.185       .  T
C501        C502   1.198       .  T
C503        C504   1.196       .  T
C505        C506   1.369       .  D
C505        H507   1.074       .  S
C506        H508   1.086       .  S
C509        C510   1.373       .  D
C509        H511   1.085       .  S
C510        C957   1.577       .  S
C510        H512   1.086       .  S
C513        C514   1.358       .  D
C513        H515   1.067       .  S
C514        H516   1.085       .  S
C517        C518   1.367       .  D
C517        H519   1.085       .  S
C518        H520   1.086       .  S
O521        C532   1.303       .  A
O521       Eu557   2.528       .  S
O522        C533   1.308       .  A
O522       Eu556   2.549       .  S
O523        C534   1.269       .  A
O523       Eu529   2.346       .  S
O524        C535   1.289       .  A
O524       Eu529   2.445       .  S
O525        C535   1.273       .  A
O525       Eu559   2.368       .  S
O526        C534   1.298       .  A
O526       Eu558   2.499       .  S
O527        C533   1.293       .  A
O527       Eu529   2.467       .  S
O528        C532   1.303       .  A
O528       Eu529   2.536       .  S
Eu529       O539   2.325       .  S
Eu529       O531   2.353       .  S
Eu529       O530   2.342       .  S
Eu529       O537   2.371       .  S
O530       Eu559   2.349       .  S
O530       Eu556   2.356       .  S
O531       Eu557   2.380       .  S
O531       Eu558   2.349       .  S
C532        C777   1.535       .  S
C533        C749   1.513       .  S
C534        C758   1.406       .  S
C535        C760   1.392       .  S
H536        O537   0.963       .  S
O537       Eu558   2.330       .  S
O537       Eu556   2.382       .  S
H538        O539   0.964       .  S
O539       Eu557   2.378       .  S
O539       Eu559   2.384       .  S
O540        C563   1.304       .  A
O540       Eu556   2.533       .  S
O541        C564   1.309       .  A
O541       Eu557   2.558       .  S
O542        C565   1.297       .  A
O542       Eu558   2.497       .  S
O543        C566   1.299       .  A
O543       Eu559   2.509       .  S
O544        C567   1.296       .  A
O544       Eu559   2.497       .  S
O545        C568   1.300       .  A
O545       Eu558   2.514       .  S
O546        C569   1.299       .  A
O546       Eu560   2.501       .  S
O547        C570   1.279       .  A
O547       Eu560   2.411       .  S
O548        C569   1.272       .  A
O548       Eu558   2.361       .  S
O549        C570   1.295       .  A
O549       Eu559   2.481       .  S
O550        C565   1.303       .  A
O550       Eu556   2.528       .  S
O551        C568   1.307       .  A
O551       Eu557   2.547       .  S
O552        C567   1.310       .  A
O552       Eu557   2.563       .  S
O553        C566   1.306       .  A
O553       Eu556   2.540       .  S
O554        C563   1.299       .  A
O554       Eu560   2.506       .  S
O555        C564   1.289       .  A
O555       Eu560   2.451       .  S
Eu556       O574   2.388       .  S
Eu556       O562   2.374       .  S
Eu557       O561   2.376       .  S
Eu557       O572   2.362       .  S
Eu558       O572   2.367       .  S
Eu558       O562   2.377       .  S
Eu559       O561   2.346       .  S
Eu559       O574   2.359       .  S
Eu560       O561   2.378       .  S
Eu560       O572   2.352       .  S
Eu560       O574   2.376       .  S
Eu560       O562   2.338       .  S
C563        C753   1.521       .  S
C564        C773   1.515       .  S
C565        C741   1.517       .  S
C566        C745   1.528       .  S
C567        C765   1.523       .  S
C568        C769   1.528       .  S
C569        C763   1.409       .  S
C570        C762   1.426       .  S
H571        O572   0.963       .  S
H573        O574   0.965       .  S
N575        C580   1.340       .  A
N575        H607   1.042       .  S
N576        C843   1.342       .  A
N576        C584   1.340       .  A
N577        C582   1.347       .  A
N577        H608   1.044   1_455  S
N578        C845   1.340       .  A
N578        C586   1.336       .  A
C579        C587   1.387       .  A
C579        C595   1.385       .  A
C580        C596   1.396   1_545  A
C580        C588   1.390       .  A
C581        C589   1.391       .  A
C581        C598   1.407       .  A
C582        C597   1.396   1_455  A
C582        C590   1.384       .  A
C583        N836   1.343       .  A
C583        C595   1.409       .  A
C583        C591   1.391       .  A
C584        C598   1.388       .  A
C584        C592   1.383       .  A
C585        N838   1.339       .  A
C585        C593   1.385       .  A
C585        C596   1.399       .  A
C586        C594   1.390       .  A
C586        C597   1.383       .  A
C587        H599   1.083       .  S
C588        H600   1.081       .  S
C589        H601   1.082       .  S
C590        H602   1.080       .  S
C591        C852   1.377       .  A
C591        H603   1.081       .  S
C592        C851   1.378       .  A
C592        H604   1.083       .  S
C593        C854   1.381       .  A
C593        H605   1.082       .  S
C594        C853   1.382       .  A
C594        H606   1.082       .  S
C595        C759   1.410       .  S
C596        C757   1.412   1_565  S
C597        C764   1.426       .  S
C598        C761   1.439       .  S
O609        C620   1.303       .  A
O609       Eu905   2.526       .  S
O610        C621   1.310       .  A
O610       Eu644   2.564   1_655  S
O611        C622   1.278       .  A
O612        C623   1.295       .  A
O612       Eu617   2.483       .  S
O613        C623   1.273       .  A
O613       Eu647   2.371   1_554  S
O614        C622   1.295       .  A
O614       Eu646   2.479       .  S
O615        C621   1.289       .  A
O615       Eu617   2.448       .  S
O616        C620   1.298       .  A
O616       Eu617   2.502   1_556  S
Eu617       O627   2.331   1_554  S
Eu617       O618   2.341       .  S
O618       Eu647   2.350   1_554  S
O618       Eu644   2.355   1_655  S
O619       Eu646   2.362   1_556  S
C620        C738   1.521       .  S
C621        C709   1.513       .  S
C622        C717   1.419       .  S
C623        C719   1.410       .  S
H624        O625   0.963       .  S
O625       Eu646   2.346       .  S
H626        O627   0.965       .  S
O627       Eu905   2.386       .  S
O627       Eu647   2.389       .  S
O628        C651   1.304       .  A
O628       Eu904   2.534   1_545  S
O629        C652   1.306       .  A
O629       Eu645   2.541   1_445  S
O630        C653   1.299       .  A
O630       Eu646   2.515       .  S
O631        C654   1.302       .  A
O631       Eu647   2.521   1_554  S
O632        C655   1.296       .  A
O632       Eu907   2.488       .  S
O633        C656   1.298       .  A
O633       Eu906   2.499   1_556  S
O634        C657   1.292       .  A
O635        C658   1.269       .  A
O635       Eu648   2.345   1_655  S
O636        C657   1.274       .  A
O636       Eu906   2.370   1_546  S
O637        C658   1.299       .  A
O637       Eu907   2.504       .  S
O638        C653   1.305       .  A
O639        C656   1.307       .  A
O640        C655   1.307       .  A
O640       Eu645   2.547   1_545  S
O641        C654   1.305       .  A
O641       Eu644   2.536   1_655  S
O642        C651   1.301       .  A
O642       Eu648   2.522   1_554  S
O643        C652   1.295       .  A
O643       Eu648   2.485       .  S
Eu644       O888   2.528       .  S
Eu644       O922   2.390   1_455  S
Eu645       O869   2.519       .  S
Eu645       O887   2.385       .  S
Eu645       O649   2.370   1_565  S
Eu646       O893   2.500   1_554  S
Eu646       O896   2.369   1_554  S
Eu646       O920   2.361   1_554  S
Eu646       O910   2.371       .  S
Eu647       O892   2.482       .  S
Eu647       O897   2.492       .  S
Eu647       O909   2.332       .  S
Eu647       O922   2.351   1_556  S
Eu648       O649   2.366   1_455  S
Eu648       O662   2.367   1_456  S
O649       Eu907   2.334       .  S
O650       Eu906   2.375   1_545  S
C651        C714   1.527       .  S
C652        C734   1.519       .  S
C653        C701   1.527       .  S
C654        C705   1.531       .  S
C655        C725   1.516       .  S
C656        C729   1.522       .  S
C657        C724   1.397       .  S
C658        C722   1.408       .  S
H659        O660   0.962       .  S
O660       Eu906   2.363   1_546  S
H661        O662   0.964       .  S
O662       Eu904   2.389   1_645  S
O662       Eu907   2.346   1_554  S
N663        C668   1.341   1_554  A
N663        C667   1.333   1_554  A
N663        H695   1.043       .  S
N664        C671   1.340       .  A
N664        C672   1.339       .  A
N665        C670   1.346       .  A
N665        C669   1.346       .  A
N665        H696   1.044       .  S
N666        C673   1.340       .  A
N666        C674   1.336       .  A
C667        C675   1.387       .  A
C667        C683   1.392   1_556  A
C668        C684   1.394       .  A
C668        C676   1.390       .  A
C669        C677   1.390       .  A
C669        C686   1.405       .  A
C670        C685   1.397       .  A
C670        C678   1.385       .  A
C671        C683   1.409       .  A
C671        C679   1.392       .  A
C672        C686   1.382       .  A
C672        C680   1.381       .  A
C673        C681   1.383       .  A
C673        C684   1.397   1_554  A
C674        C682   1.389       .  A
C674        C685   1.381       .  A
C675        C676   1.380       .  A
C675        H687   1.082       .  S
C676        H688   1.083       .  S
C677        C678   1.371       .  A
C677        H689   1.082       .  S
C678        H690   1.081       .  S
C679        C680   1.377       .  A
C679        H691   1.081       .  S
C680        H692   1.083       .  S
C681        C682   1.381       .  A
C681        H693   1.082       .  S
C682        H694   1.082       .  S
C683        C723   1.411   1_554  S
C684        C721   1.414       .  S
C685        C720   1.426       .  S
C686        C718   1.435       .  S
C697        C766   1.571       .  S
C698        C702   1.575       .  S
C698        C706   1.576       .  S
C698        C774   1.562       .  S
C698       C1038   1.577       .  S
C699        C733   1.560       .  S
C699        C737   1.572       .  S
C699        C746   1.573       .  S
C700        C986   1.559       .  S
C700        C990   1.566       .  S
C700       C1010   1.554       .  S
C700        C754   1.567       .  S
C701        C702   1.366       .  D
C701        H703   1.076       .  S
C702        H964   1.086       .  S
H704        C962   1.086       .  S
C705        C706   1.370       .  D
C705        H967   1.086       .  S
C706        H708   1.086       .  S
H707        C965   1.086       .  S
C709        C710   1.361       .  D
C709        H711   1.071       .  S
C713        C714   1.368       .  D
C713        H715   1.086       .  S
C717        C718   1.197       .  T
C719        C720   1.192       .  T
C721        C722   1.189       .  T
C723        C724   1.182       .  T
C725        C726   1.369       .  D
C725        H727   1.086       .  S
C726        C960   1.560   1_545  S
C726        H988   1.086       .  S
H728        C986   1.086       .  S
C729        C730   1.370       .  D
C729        H991   1.086       .  S
C730        C960   1.566       .  S
C730        H732   1.086       .  S
H731        C989   1.086       .  S
C733        H735   1.086       .  S
C734        H736   1.086       .  S
C741        C742   1.366       .  D
C741        H743   1.086       .  S
C742        H744   1.086       .  S
C745        C746   1.371       .  D
C745        H747   1.086       .  S
C746        H748   1.086       .  S
C749        C750   1.369       .  D
C749        H751   1.086       .  S
C750        C960   1.556   1_545  S
C750        H752   1.086       .  S
C753        C754   1.367       .  D
C753        H755   1.086       .  S
C754        H756   1.086       .  S
C757        C758   1.189       .  T
C759        C760   1.180       .  T
C761        C762   1.200       .  T
C763        C764   1.192       .  T
C765        C766   1.368       .  D
C765        H767   1.074       .  S
C766        H768   1.086       .  S
C769        C770   1.370       .  D
C769        H771   1.085       .  S
C770        H772   1.086       .  S
C773        C774   1.359       .  D
C773        H775   1.068       .  S
C774        H776   1.085       .  S
C777        C778   1.369       .  D
C777        H779   1.085       .  S
C778        C958   1.581       .  S
C778        H780   1.086       .  S
O781        C792   1.300       .  A
O781       Eu817   2.510       .  S
O782        C793   1.309       .  A
O782       Eu816   2.557       .  S
O783        C794   1.270       .  A
O783       Eu789   2.353       .  S
O784        C795   1.289       .  A
O784       Eu789   2.447       .  S
O785        C795   1.275       .  A
O785       Eu819   2.383       .  S
O786        C794   1.299       .  A
O786       Eu818   2.507       .  S
O787        C793   1.291       .  A
O787       Eu789   2.461       .  S
O788        C792   1.305       .  A
O788       Eu789   2.542       .  S
Eu789       O799   2.326       .  S
Eu789       O791   2.357       .  S
Eu789       O790   2.339       .  S
Eu789       O797   2.373       .  S
O790       Eu819   2.346       .  S
O790       Eu816   2.357       .  S
O791       Eu817   2.386       .  S
O791       Eu818   2.354       .  S
C792       C1037   1.530       .  S
C793       C1009   1.513       .  S
C794       C1018   1.409       .  S
C795       C1020   1.399       .  S
H796        O797   0.963       .  S
O797       Eu818   2.329       .  S
O797       Eu816   2.376       .  S
H798        O799   0.964       .  S
O799       Eu817   2.383       .  S
O799       Eu819   2.381       .  S
O800        C823   1.305       .  A
O800       Eu816   2.535       .  S
O801        C824   1.309       .  A
O801       Eu817   2.553       .  S
O802        C825   1.295       .  A
O802       Eu818   2.488       .  S
O803        C826   1.299       .  A
O803       Eu819   2.504       .  S
O804        C827   1.298       .  A
O804       Eu819   2.509       .  S
O805        C828   1.301       .  A
O805       Eu818   2.516       .  S
O806        C829   1.299       .  A
O806       Eu820   2.501       .  S
O807        C830   1.278       .  A
O807       Eu820   2.400       .  S
O808        C829   1.274       .  A
O808       Eu818   2.371       .  S
O809        C830   1.296       .  A
O809       Eu819   2.485       .  S
O810        C825   1.304       .  A
O810       Eu816   2.533       .  S
O811        C828   1.308       .  A
O811       Eu817   2.551       .  S
O812        C827   1.307       .  A
O812       Eu817   2.552       .  S
O813        C826   1.305       .  A
O813       Eu816   2.535       .  S
O814        C823   1.299       .  A
O814       Eu820   2.505       .  S
O815        C824   1.292       .  A
O815       Eu820   2.471       .  S
Eu816       O834   2.389       .  S
Eu816       O822   2.377       .  S
Eu817       O821   2.368       .  S
Eu817       O832   2.361       .  S
Eu818       O832   2.369       .  S
Eu818       O822   2.383       .  S
Eu819       O821   2.343       .  S
Eu819       O834   2.361       .  S
Eu820       O821   2.373       .  S
Eu820       O832   2.349       .  S
Eu820       O834   2.378       .  S
Eu820       O822   2.345       .  S
C823       C1013   1.520       .  S
C824       C1033   1.520       .  S
C825       C1001   1.515       .  S
C826       C1005   1.523       .  S
C827       C1025   1.525       .  S
C828       C1029   1.531       .  S
C829       C1023   1.412       .  S
C830       C1022   1.423       .  S
H831        O832   0.964       .  S
H833        O834   0.965       .  S
N835        C840   1.340       .  A
N835        H867   1.043       .  S
N836        C844   1.339       .  A
N837        C842   1.347       .  A
N837        H868   1.044   1_455  S
N838        C846   1.337       .  A
C839        C847   1.387       .  A
C839        C855   1.393       .  A
C840        C856   1.393       .  A
C840        C848   1.389       .  A
C841        C849   1.391       .  A
C841        C858   1.407       .  A
C842        C857   1.396   1_455  A
C842        C850   1.384       .  A
C843        C855   1.411       .  A
C843        C851   1.392       .  A
C844        C858   1.389   1_545  A
C844        C852   1.384       .  A
C845        C853   1.383       .  A
C845        C856   1.398       .  A
C846        C854   1.387       .  A
C846        C857   1.380       .  A
C847        H859   1.082       .  S
C848        H860   1.082       .  S
C849        H861   1.081       .  S
C850        H862   1.080       .  S
C851        H863   1.081       .  S
C852        H864   1.082       .  S
C853        H865   1.082       .  S
C854        H866   1.082       .  S
C855       C1019   1.416       .  S
C856       C1017   1.413       .  S
C857       C1024   1.427       .  S
C858       C1021   1.437       .  S
O869        C880   1.302       .  A
O870        C881   1.312       .  A
O870       Eu904   2.573   1_655  S
O871        C882   1.277       .  A
O872        C883   1.294       .  A
O872       Eu877   2.480       .  S
O873        C883   1.274       .  A
O873       Eu907   2.372   1_564  S
O874        C882   1.297       .  A
O874       Eu906   2.491       .  S
O875        C881   1.291       .  A
O875       Eu877   2.463       .  S
O876        C880   1.298       .  A
O876       Eu877   2.501   1_556  S
Eu877       O887   2.339   1_554  S
Eu877       O878   2.341       .  S
O878       Eu907   2.356   1_564  S
O878       Eu904   2.355   1_655  S
O879       Eu906   2.356   1_556  S
C880        C998   1.518       .  S
C881        C969   1.520       .  S
C882        C977   1.424       .  S
C883        C979   1.409       .  S
H884        O885   0.964       .  S
O885       Eu906   2.346       .  S
H886        O887   0.965       .  S
O887       Eu907   2.389   1_565  S
O888        C911   1.303       .  A
O889        C912   1.306       .  A
O889       Eu905   2.536   1_455  S
O890        C913   1.297       .  A
O890       Eu906   2.505       .  S
O891        C914   1.302       .  A
O891       Eu907   2.523   1_554  S
O892        C915   1.295       .  A
O893        C916   1.298       .  A
O894        C917   1.293       .  A
O895        C918   1.271       .  A
O895       Eu908   2.360   1_656  S
O896        C917   1.274       .  A
O897        C918   1.297       .  A
O898        C913   1.307       .  A
O899        C916   1.308       .  A
O900        C915   1.307       .  A
O900       Eu905   2.549       .  S
O901        C914   1.304       .  A
O901       Eu904   2.527   1_645  S
O902        C911   1.302       .  A
O902       Eu908   2.530       .  S
O903        C912   1.294       .  A
O903       Eu908   2.476   1_556  S
Eu905       O909   2.373       .  S
Eu908       O909   2.365   1_454  S
Eu908       O922   2.365   1_455  S
C911        C974   1.529       .  S
C912        C994   1.513       .  S
C913        C961   1.525       .  S
C914        C965   1.528       .  S
C915        C985   1.514       .  S
C916        C989   1.522       .  S
C917        C984   1.400       .  S
C918        C982   1.410       .  S
H919        O920   0.962       .  S
H921        O922   0.965       .  S
N923        C928   1.341   1_554  A
N923        C927   1.334   1_554  A
N923        H955   1.044       .  S
N924        C931   1.341       .  A
N924        C932   1.339       .  A
N925        C930   1.348       .  A
N925        C929   1.347       .  A
N925        H956   1.044       .  S
N926        C933   1.341       .  A
N926        C934   1.338       .  A
C927        C935   1.386       .  A
C927        C943   1.391   1_556  A
C928        C944   1.393       .  A
C928        C936   1.389       .  A
C929        C937   1.391       .  A
C929        C946   1.405       .  A
C930        C945   1.397       .  A
C930        C938   1.386       .  A
C931        C943   1.409       .  A
C931        C939   1.392       .  A
C932        C946   1.384       .  A
C932        C940   1.380       .  A
C933        C941   1.384       .  A
C933        C944   1.399   1_554  A
C934        C942   1.390       .  A
C934        C945   1.385       .  A
C935        C936   1.381       .  A
C935        H947   1.081       .  S
C936        H948   1.082       .  S
C937        C938   1.369       .  A
C937        H949   1.082       .  S
C938        H950   1.082       .  S
C939        C940   1.378       .  A
C939        H951   1.080       .  S
C940        H952   1.083       .  S
C941        C942   1.381       .  A
C941        H953   1.082       .  S
C942        H954   1.082       .  S
C943        C983   1.413   1_554  S
C944        C981   1.415       .  S
C945        C980   1.425       .  S
C946        C978   1.437       .  S
C957       C1026   1.573       .  S
C958        C962   1.572       .  S
C958        C966   1.573       .  S
C958       C1034   1.568   1_545  S
C959        C993   1.559       .  S
C959        C997   1.565       .  S
C959       C1006   1.568       .  S
C960       C1014   1.566       .  S
C961        C962   1.362   1_565  D
C961        H963   1.070       .  S
C965        C966   1.367       .  D
C966        H968   1.086       .  S
C969        C970   1.363       .  D
C969        H971   1.071       .  S
C973        C974   1.368       .  D
C973        H975   1.086       .  S
C977        C978   1.200       .  T
C979        C980   1.192       .  T
C981        C982   1.190       .  T
C983        C984   1.183       .  T
C985        C986   1.369       .  D
C985        H987   1.086       .  S
C989        C990   1.371       .  D
C990        H992   1.086       .  S
C993        H995   1.086       .  S
C994        H996   1.086       .  S
C1001      C1002   1.367       .  D
C1001      H1003   1.086       .  S
C1002      H1004   1.086       .  S
C1005      C1006   1.369       .  D
C1005      H1007   1.086       .  S
C1006      H1008   1.086       .  S
C1009      C1010   1.370       .  D
C1009      H1011   1.085       .  S
C1010      H1012   1.086       .  S
C1013      C1014   1.367       .  D
C1013      H1015   1.086       .  S
C1014      H1016   1.086       .  S
C1017      C1018   1.189       .  T
C1019      C1020   1.184       .  T
C1021      C1022   1.199       .  T
C1023      C1024   1.194       .  T
C1025      C1026   1.369       .  D
C1025      H1027   1.079       .  S
C1026      H1028   1.086       .  S
C1029      C1030   1.371       .  D
C1029      H1031   1.086       .  S
C1030      H1032   1.086       .  S
C1033      C1034   1.364       .  D
C1033      H1035   1.072       .  S
C1034      H1036   1.085       .  S
C1037      C1038   1.364       .  D
C1037      H1039   1.086       .  S
C1038      H1040   1.086       .  S
