geometry optimzed in LAMMPS
_audit_creation_date              2020-12-01 
_audit_creation_method            'lammps2cif' 
_symmetry_space_group_name_H-M    'P1' 
_symmetry_Int_Tables_number       1 
_symmetry_cell_setting            triclinic 
loop_ 
_symmetry_equiv_pos_as_xyz 
  x,y,z 
_cell_length_a                    40.64274599 
_cell_length_b                    25.14854765176129 
_cell_length_c                    24.988731652317917 
_cell_angle_alpha                 90.44903368047744 
_cell_angle_beta                  89.44562560689234 
_cell_angle_gamma                 90.07664599465853 
loop_ 
_atom_site_label 
_atom_site_type_symbol 
_atom_site_fract_x 
_atom_site_fract_y 
_atom_site_fract_z 
_atom_site_charge 
O1          O  0.45918948  0.03622829  0.20404232    -0.74700
O2          O  0.52807743  0.03271243  0.30839584    -0.74700
O3          O  0.52627795  0.04225265  0.20010188    -0.74800
O4          O  0.46132341  0.02803611  0.31120687    -0.74800
O5          O  0.46331212  0.93949266  0.30411895    -0.74800
O6          O  0.52937928  0.95401443  0.19488068    -0.74800
O7          O  0.52989824  0.94423814  0.30299661    -0.74700
O8          O  0.46273648  0.94829548  0.19774167    -0.74800
Ni9        Ni  0.49367134  0.03802868  0.25623223     1.25400
Ni10       Ni  0.49648483  0.94344176  0.24949464     1.25400
C11         C  0.44925016  0.99195831  0.18415310     0.87500
C12         C  0.54018366  0.98801718  0.32313601     0.87400
C13         C  0.53905135  0.00014244  0.17969463     0.87400
C14         C  0.45138745  0.98183395  0.32518932     0.87600
C15         C  0.35929015  0.99242025  0.00336170    -0.02800
C16         C  0.63608879  0.99840777  0.00035489    -0.02800
O17         O  0.52817167  0.45349490  0.20101011    -0.74700
O18         O  0.46369417  0.46766768  0.31356792    -0.74700
O19         O  0.46118304  0.45867760  0.20649098    -0.74800
O20         O  0.53018809  0.46253967  0.30958400    -0.74800
O21         O  0.53273074  0.55097989  0.30531857    -0.74800
O22         O  0.46466398  0.54678045  0.20170760    -0.74800
O23         O  0.46632315  0.55619746  0.30790626    -0.74700
O24         O  0.53114111  0.54181254  0.19698757    -0.74800
Ni25       Ni  0.49580083  0.45735882  0.25790155     1.25400
Ni26       Ni  0.49888408  0.55201304  0.25258063     1.25400
C27         C  0.54057890  0.49575964  0.18067505     0.87500
C28         C  0.45419616  0.51408195  0.32843608     0.87400
C29         C  0.45113286  0.50290719  0.18775056     0.87400
C30         C  0.54257150  0.50701283  0.32490975     0.87600
C31         C  0.36221844  0.50427951  0.00679904    -0.02800
C32         C  0.63795614  0.49360826  0.00135239    -0.02800
O33         O  0.03134766  0.45467696  0.44427458    -0.74700
O34         O  0.96538901  0.44889623  0.05195712    -0.74700
O35         O  0.96496620  0.45763643  0.44779125    -0.74800
O36         O  0.03219242  0.44451348  0.05113668    -0.74800
O37         O  0.03495067  0.53282626  0.05927955    -0.74800
O38         O  0.96618529  0.54569137  0.45651940    -0.74800
O39         O  0.96791966  0.53723792  0.06060383    -0.74700
O40         O  0.03284842  0.54289778  0.45464751    -0.74800
Ni41       Ni  0.99798002  0.44636048  0.49926209     1.25400
Ni42       Ni  0.00016331  0.54075997  0.50992797     1.25400
C43         C  0.04255865  0.50053350  0.43090317     0.87500
C44         C  0.95554559  0.49235392  0.07379248     0.87400
C45         C  0.95488361  0.50354899  0.43390870     0.87400
C46         C  0.04466042  0.48610302  0.07246378     0.87600
C47         C  0.13536877  0.49587070  0.24973592    -0.02800
C48         C  0.86168618  0.50510632  0.25451276    -0.02800
O49         O  0.02893177  0.06892987  0.03736965    -0.74700
O50         O  0.96130467  0.02224011  0.43912744    -0.74700
O51         O  0.96376278  0.04903794  0.04532878    -0.74800
O52         O  0.02718287  0.04072506  0.43042855    -0.74800
O53         O  0.03577189  0.95472361  0.44671682    -0.74800
O54         O  0.97531604  0.96443534  0.06369962    -0.74800
O55         O  0.97010909  0.93706903  0.45853520    -0.74700
O56         O  0.04025156  0.98358433  0.05261745    -0.74800
Ni57       Ni  0.99496320  0.04989224  0.98737775     1.25400
Ni58       Ni  0.00631002  0.95861518  0.00564621     1.25400
C59         C  0.04523524  0.03314254  0.06187584     0.87500
C60         C  0.95447958  0.97278917  0.43280385     0.87400
C61         C  0.95999623  0.00779340  0.07441970     0.87400
C62         C  0.04205347  0.99685224  0.42005636     0.87600
C63         C  0.13398245  0.01559301  0.23816485    -0.02800
C64         C  0.86883173  0.98955707  0.25564760    -0.02800
O65         O  0.79937491  0.19087001  0.37769504    -0.74700
O66         O  0.74929924  0.30045548  0.44976810    -0.74700
O67         O  0.74824700  0.19246376  0.44956983    -0.74800
O68         O  0.80020569  0.29915867  0.37884677    -0.74800
O69         O  0.76568865  0.29829542  0.30990509    -0.74800
O70         O  0.71315259  0.19327209  0.38142934    -0.74800
O71         O  0.71483356  0.30116708  0.38079699    -0.74700
O72         O  0.76392078  0.19048497  0.31032189    -0.74800
Ni73       Ni  0.77559549  0.24556194  0.41637789     1.25400
Ni74       Ni  0.73813160  0.24576732  0.34331074     1.25400
C75         C  0.78992699  0.17249757  0.33220397     0.87500
C76         C  0.72416490  0.31965661  0.42615525     0.87400
C77         C  0.72202776  0.17556807  0.42701823     0.87400
C78         C  0.79124457  0.31671704  0.33322744     0.87600
O79         O  0.70846125  0.80244155  0.10849743    -0.74700
O80         O  0.75781668  0.69849343  0.18512684    -0.74700
O81         O  0.75710164  0.80586657  0.18214431    -0.74800
O82         O  0.70919495  0.69414876  0.11156254    -0.74800
O83         O  0.74624220  0.69204477  0.04509668    -0.74800
O84         O  0.79376666  0.80389992  0.11552035    -0.74800
O85         O  0.79522756  0.69703615  0.11923026    -0.74700
O86         O  0.74518330  0.80032695  0.04153106    -0.74800
Ni87       Ni  0.73168376  0.75030083  0.14895554     1.25400
Ni88       Ni  0.77135130  0.74826161  0.07787562     1.25400
C89         C  0.71892079  0.81916622  0.06311014     0.87500
C90         C  0.78509438  0.68158529  0.16534682     0.87400
C91         C  0.78404106  0.82236656  0.16102970     0.87400
C92         C  0.72012139  0.67399488  0.06756447     0.87600
O93         O  0.29902409  0.30644089  0.36939940    -0.74700
O94         O  0.24798045  0.19793447  0.29942139    -0.74700
O95         O  0.24655327  0.30597914  0.30109868    -0.74800
O96         O  0.29961497  0.19781476  0.36811695    -0.74800
O97         O  0.26406721  0.19612456  0.43671613    -0.74800
O98         O  0.21305575  0.30466492  0.37196901    -0.74800
O99         O  0.21269136  0.19816076  0.36834010    -0.74700
O100        O  0.26461863  0.30415755  0.43948381    -0.74800
Ni101      Ni  0.27469140  0.25215138  0.33207203     1.25400
Ni102      Ni  0.23756187  0.25072694  0.40665057     1.25400
C103        C  0.28983926  0.32372730  0.41554181     0.87500
C104        C  0.22145168  0.18128251  0.32180857     0.87400
C105        C  0.22028651  0.32204974  0.32534342     0.87400
C106        C  0.28976194  0.17822630  0.41281094     0.87600
O107        O  0.20002331  0.69253159  0.13404940    -0.74700
O108        O  0.24708259  0.79898314  0.05375148    -0.74700
O109        O  0.25011020  0.69146814  0.06088022    -0.74800
O110        O  0.19641731  0.79907497  0.12498845    -0.74800
O111        O  0.23090335  0.80809320  0.19296454    -0.74800
O112        O  0.28581056  0.69964570  0.12779221    -0.74800
O113        O  0.28182698  0.80743398  0.12195150    -0.74700
O114        O  0.23580360  0.70059378  0.20071473    -0.74800
Ni115      Ni  0.22216519  0.74512616  0.09105194     1.25400
Ni116      Ni  0.25992246  0.75420497  0.16317490     1.25400
C117        C  0.21010135  0.67932257  0.18070483     0.87500
C118        C  0.27203293  0.82125344  0.07562301     0.87400
C119        C  0.27669934  0.67768137  0.08374778     0.87400
C120        C  0.20441031  0.82172741  0.16897208     0.87600
C121        C  0.81800250  0.92725935  0.25914114    -0.26600
C122        C  0.84782668  0.94176061  0.23335910    -0.14700
C123        C  0.85842489  0.90760896  0.19048977     0.36000
C124        C  0.83676584  0.87082786  0.16796922    -0.26100
C125        C  0.80529205  0.86206601  0.18910769    -0.15300
C126        C  0.79636046  0.88893579  0.23709311     0.37000
N127        N  0.76541435  0.87805460  0.26310479    -0.89500
H128        H  0.81079770  0.94767434  0.29565779     0.18200
H129        H  0.84549470  0.84750061  0.13406535     0.18100
N130        N  0.89172686  0.90668018  0.17120147    -0.88600
H131        H  0.76199647  0.90313107  0.29626386     0.35500
H132        H  0.76659591  0.83942225  0.27811457     0.40600
H133        H  0.90134447  0.86872752  0.17756282     0.40200
H134        H  0.89160295  0.91312731  0.12990384     0.35100
C135        C  0.81532667  0.04726073  0.25450617    -0.26600
C136        C  0.84899424  0.04224963  0.26806190    -0.14700
C137        C  0.86359002  0.08764900  0.29434003     0.36000
C138        C  0.84366876  0.12966232  0.31260569    -0.26100
C139        C  0.80968950  0.13012492  0.30502755    -0.15300
C140        C  0.79574091  0.08960991  0.27297649     0.37000
N141        N  0.76156660  0.08927705  0.25949404    -0.89500
H142        H  0.80349816  0.01835738  0.22901321     0.18200
H143        H  0.85505623  0.16203728  0.33459213     0.18100
N144        N  0.89803460  0.09254666  0.30627902    -0.88600
H145        H  0.75647711  0.12322817  0.23721981     0.35500
H146        H  0.74757521  0.09001685  0.29481562     0.40600
H147        H  0.91155589  0.05949945  0.29501330     0.40200
H148        H  0.90037871  0.09547801  0.34779816     0.35100
C149        C  0.14019974  0.93152306  0.17795317    -0.26600
C150        C  0.14971715  0.96029313  0.22408015    -0.14700
C151        C  0.17196182  0.93411591  0.25876827     0.36000
C152        C  0.18913744  0.88836489  0.24102342    -0.26100
C153        C  0.18313201  0.86552931  0.19050882    -0.15300
C154        C  0.15689833  0.88606259  0.16033089     0.37000
N155        N  0.14713798  0.86172942  0.11089545    -0.89500
H156        H  0.11971626  0.94403071  0.15402739     0.18200
H157        H  0.20761929  0.87129320  0.26666179     0.18100
N158        N  0.17788248  0.95450247  0.31149694    -0.88600
H159        H  0.14940974  0.88999554  0.08057849     0.35500
H160        H  0.12234000  0.85104985  0.11420408     0.40600
H161        H  0.17115853  0.92511178  0.33886113     0.40200
H162        H  0.20309436  0.96139166  0.31567783     0.35100
C163        C  0.14626135  0.10997367  0.26898564    -0.26600
C164        C  0.15939923  0.06101318  0.25023655    -0.14700
C165        C  0.19442537  0.05811914  0.24498869     0.36000
C166        C  0.21423858  0.09841389  0.26742081    -0.26100
C167        C  0.20030035  0.14245972  0.29358939    -0.15300
C168        C  0.16607165  0.14931008  0.29217933     0.37000
N169        N  0.15122659  0.19622266  0.31454115    -0.89500
H170        H  0.11987078  0.11585555  0.27008486     0.18200
H171        H  0.24078085  0.09460143  0.26525321     0.18100
N172        N  0.21040833  0.01677444  0.21487655    -0.88600
H173        H  0.13444930  0.18455847  0.34419441     0.35500
H174        H  0.13810859  0.21508592  0.28432408     0.40600
H175        H  0.22790741  0.99887710  0.23924149     0.40200
H176        H  0.22323765  0.03434483  0.18313005     0.35100
C177        C  0.10269144  0.04322591  0.09436899    -0.26600
C178        C  0.06890709  0.04795612  0.10393053    -0.14700
C179        C  0.05782696  0.05944438  0.15613212     0.36000
C180        C  0.07968588  0.05405154  0.19909105    -0.26100
C181        C  0.11272798  0.03773774  0.19075982    -0.15300
C182        C  0.12492868  0.04226065  0.13696912     0.41800
N183        N  0.15924845  0.04437021  0.12369780    -0.89500
H184        H  0.11183126  0.03889501  0.05370445     0.18200
H185        H  0.07023055  0.06077885  0.23913163     0.18100
N186        N  0.02411005  0.07411282  0.16547770    -0.88600
H187        H  0.17108293  0.00979907  0.13544580     0.35500
H188        H  0.16960878  0.07729650  0.14285566     0.40600
H189        H  0.02016159  0.11042220  0.14647803     0.40200
H190        H  0.01968815  0.08064148  0.20627555     0.35100
C191        C  0.06179791  0.96733082  0.33037077    -0.26600
C192        C  0.06759986  0.99565636  0.37774035    -0.14700
C193        C  0.09755892  0.02343668  0.38340652     0.36000
C194        C  0.11947055  0.02609631  0.33997085    -0.26100
C195        C  0.11194522  0.00420167  0.28906102    -0.15300
C196        C  0.08375729  0.97045744  0.28660876     0.37000
N197        N  0.07654582  0.94069497  0.23906326    -0.89500
H198        H  0.03949150  0.94396460  0.32658408     0.18200
H199        H  0.14265119  0.04584893  0.34709164     0.18100
N200        N  0.10705366  0.04856371  0.43283628    -0.88600
H201        H  0.05317084  0.95160845  0.22594009     0.35500
H202        H  0.07575458  0.90041415  0.24899453     0.40600
H203        H  0.08965322  0.04274331  0.46313736     0.40200
H204        H  0.10837499  0.08951776  0.42622458     0.35100
C205        C  0.90934042  0.92935217  0.30734891    -0.26600
C206        C  0.88412462  0.96797551  0.30881063    -0.14700
C207        C  0.87468855  0.98600971  0.36084364     0.36000
C208        C  0.89739675  0.98363203  0.40261320    -0.26100
C209        C  0.92778286  0.95839694  0.39534184    -0.15300
C210        C  0.93245792  0.92632436  0.34891023     0.37000
N211        N  0.96133946  0.89442456  0.33992060    -0.89500
H212        H  0.91435694  0.90757070  0.27070635     0.18200
H213        H  0.89175708  0.00346417  0.44027080     0.18100
N214        N  0.84218960  0.00540812  0.37207579    -0.88600
H215        H  0.95370336  0.85480444  0.33690103     0.35500
H216        H  0.97748966  0.89644067  0.37195120     0.40600
H217        H  0.84410433  0.04302590  0.38988928     0.40200
H218        H  0.83131715  0.98019726  0.40023721     0.35100
C219        C  0.90566648  0.02668707  0.11671693    -0.26600
C220        C  0.93834475  0.01052988  0.12194448    -0.14700
C221        C  0.95023276  0.99759932  0.17281695     0.36000
C222        C  0.92887875  0.99966310  0.21716570    -0.26100
C223        C  0.89447204  0.00642480  0.21134733    -0.15300
C224        C  0.88353190  0.02359887  0.16016175     0.37000
N225        N  0.84951371  0.03444273  0.15090463    -0.89500
H226        H  0.89664641  0.03815498  0.07778988     0.18200
H227        H  0.93977000  0.99354976  0.25558978     0.18100
N228        N  0.98400232  0.98214855  0.17947135    -0.88600
H229        H  0.84754940  0.07342843  0.13708268     0.35500
H230        H  0.84123789  0.00873650  0.12080144     0.40600
H231        H  0.98717529  0.94500853  0.16111913     0.40200
H232        H  0.98936109  0.97676621  0.21990390     0.35100
C233        C  0.84372672  0.40549349  0.24284972    -0.26600
C234        C  0.84059466  0.45519038  0.26943111    -0.14700
C235        C  0.82095426  0.45678007  0.31707951     0.36000
C236        C  0.80613853  0.41073158  0.33673743    -0.26100
C237        C  0.80894562  0.36226586  0.30971718    -0.15300
C238        C  0.82766825  0.35950184  0.26173864     0.37000
N239        N  0.83241942  0.31049943  0.23267623    -0.89500
H240        H  0.85992342  0.40089293  0.20870456     0.18200
H241        H  0.79203476  0.41309702  0.37371562     0.18100
N242        N  0.81629198  0.50555235  0.34624681    -0.88600
H243        H  0.82164519  0.31487704  0.19514398     0.35500
H244        H  0.82051675  0.27873849  0.25129592     0.40600
H245        H  0.82498438  0.50026038  0.38509432     0.40200
H246        H  0.79105889  0.51327302  0.34890878     0.35100
C247        C  0.85528207  0.60248286  0.22669454    -0.26600
C248        C  0.83951767  0.55381943  0.23952260    -0.14700
C249        C  0.80494712  0.55068801  0.22850187     0.36000
C250        C  0.78797789  0.59521088  0.21006176    -0.26100
C251        C  0.80424614  0.64154705  0.19506625    -0.15300
C252        C  0.83835956  0.64593514  0.20480757     0.37000
N253        N  0.85666163  0.69362643  0.19348252    -0.89500
H254        H  0.88154926  0.60640153  0.23246917     0.18200
H255        H  0.76183021  0.59172196  0.20333379     0.18100
N256        N  0.78678825  0.50187480  0.23057403    -0.88600
H257        H  0.86658983  0.70721188  0.22955490     0.35500
H258        H  0.84138942  0.72409283  0.18043067     0.40600
H259        H  0.76660956  0.50713471  0.25634975     0.40200
H260        H  0.77779404  0.49343945  0.19235469     0.35100
C261        C  0.15732155  0.63945722  0.20960630    -0.26600
C262        C  0.19163934  0.63865979  0.21124202    -0.14700
C263        C  0.20729690  0.59787027  0.23997745     0.36000
C264        C  0.18867830  0.55361969  0.25694264    -0.26100
C265        C  0.15482644  0.54923521  0.24539674    -0.15300
C266        C  0.13873537  0.59636510  0.22817168     0.37000
N267        N  0.10362308  0.59901632  0.22470649    -0.89500
H268        H  0.14480797  0.67275174  0.19151631     0.18200
H269        H  0.20109764  0.52214972  0.27779197     0.18100
N270        N  0.24186638  0.60094713  0.25133745    -0.88600
H271        H  0.09732183  0.60704339  0.18510986     0.35500
H272        H  0.09556379  0.63090465  0.24847495     0.40600
H273        H  0.25484488  0.59876806  0.21518428     0.40200
H274        H  0.24926632  0.56823521  0.27377616     0.35100
C275        C  0.20691643  0.39099059  0.25545806    -0.26600
C276        C  0.19738896  0.36091515  0.30021679    -0.14700
C277        C  0.16510446  0.36774730  0.32039272     0.36000
C278        C  0.14516860  0.40821197  0.30070876    -0.26100
C279        C  0.15664000  0.44529646  0.26253551    -0.15300
C280        C  0.18638785  0.43146094  0.23525648     0.37000
N281        N  0.19608688  0.45819986  0.18731734    -0.89500
H282        H  0.23053811  0.38367872  0.23635788     0.18200
H283        H  0.12046483  0.41066754  0.31696408     0.18100
N284        N  0.15199360  0.33343018  0.36089827    -0.88600
H285        H  0.21958290  0.47422947  0.19280090     0.35500
H286        H  0.19775731  0.42983218  0.15661694     0.40600
H287        H  0.13089086  0.31500134  0.34588966     0.40200
H288        H  0.14503452  0.35688674  0.39383627     0.35100
C289        C  0.09969675  0.50977620  0.10673262    -0.26600
C290        C  0.07090451  0.48002701  0.11244730    -0.14700
C291        C  0.06835644  0.44360433  0.15496481     0.36000
C292        C  0.09244111  0.44409182  0.19521717    -0.26100
C293        C  0.11767920  0.48282059  0.19566237    -0.15300
C294        C  0.12399411  0.50907933  0.14613310     0.37000
N295        N  0.15510696  0.53334875  0.13422701    -0.89500
H296        H  0.10355460  0.53336008  0.07107327     0.18200
H297        H  0.08913140  0.41864273  0.22959510     0.18100
N298        N  0.04063574  0.40821278  0.15859387    -0.88600
H299        H  0.15091824  0.57243028  0.12210323     0.35500
H300        H  0.16546506  0.51320932  0.10142212     0.40600
H301        H  0.01952913  0.43137489  0.16399586     0.40200
H302        H  0.04243910  0.38419485  0.19241159     0.35100
C303        C  0.07610775  0.51095910  0.28993822    -0.26600
C304        C  0.11051625  0.50649389  0.29739198    -0.14700
C305        C  0.12192815  0.51050606  0.35111053     0.36000
C306        C  0.09953923  0.50844101  0.39432841    -0.26100
C307        C  0.06570335  0.50531797  0.38550959    -0.15300
C308        C  0.05380438  0.50998704  0.33325433     0.37000
N309        N  0.01896330  0.51331687  0.32443897    -0.89500
H310        H  0.06607861  0.51559392  0.25045608     0.18200
H311        H  0.10869794  0.50833833  0.43492568     0.18100
N312        N  0.15641184  0.51369570  0.36206846    -0.88600
H313        H  0.01414979  0.51663332  0.28365000     0.35500
H314        H  0.01055362  0.54852374  0.34236197     0.40600
H315        H  0.16277686  0.48155590  0.38615502     0.40200
H316        H  0.16064592  0.54864085  0.38387057     0.35100
C317        C  0.91026771  0.55110533  0.38336705    -0.26600
C318        C  0.93052580  0.50626717  0.39005353    -0.14700
C319        C  0.92705133  0.46270294  0.35467090     0.36000
C320        C  0.90371076  0.46475144  0.31467659    -0.26100
C321        C  0.88379290  0.50989396  0.30550371    -0.15300
C322        C  0.88676095  0.55329324  0.34194465     0.37000
N323        N  0.86581859  0.59875920  0.33883353    -0.89500
H324        H  0.91232386  0.58441144  0.41089794     0.18200
H325        H  0.90235245  0.43109106  0.28751608     0.18100
N326        N  0.94792424  0.41659802  0.35801292    -0.88600
H327        H  0.88070124  0.63243255  0.33454811     0.35500
H328        H  0.85292962  0.60245199  0.37508398     0.40600
H329        H  0.97178863  0.42842899  0.34752800     0.40200
H330        H  0.94118372  0.38727924  0.33030059     0.35100
C331        C  0.89828632  0.47955217  0.11029946    -0.26600
C332        C  0.93163017  0.49159575  0.11814403    -0.14700
C333        C  0.94192511  0.50962604  0.16805914     0.36000
C334        C  0.91940332  0.51397738  0.20996386    -0.26100
C335        C  0.88584534  0.49828028  0.20518043    -0.15300
C336        C  0.87520317  0.48434232  0.15282996     0.37000
N337        N  0.84095701  0.47711495  0.14208271    -0.89500
H338        H  0.88991822  0.46854565  0.07068715     0.18200
H339        H  0.92898165  0.53176831  0.24607220     0.18100
N340        N  0.97562429  0.52421309  0.17631309    -0.88600
H341        H  0.83771265  0.43931430  0.12522212     0.35500
H342        H  0.83410931  0.50514668  0.11360446     0.40600
H343        H  0.98480417  0.50025919  0.20665668     0.40200
H344        H  0.97636078  0.56375766  0.18947615     0.35100
C345        C  0.68379363  0.53673726  0.05510399    -0.26600
C346        C  0.66288608  0.54085627  0.01029493    -0.14700
C347        C  0.66790068  0.58604527  0.97695057     0.36000
C348        C  0.68716490  0.62924082  0.99546094    -0.26100
C349        C  0.70321108  0.62703262  0.04482795    -0.15300
C350        C  0.70297062  0.57895832  0.07297370     0.37000
N351        N  0.72209230  0.57177451  0.12013211    -0.89500
H352        H  0.68351929  0.50136321  0.07913181     0.18200
H353        H  0.68939662  0.66468498  0.97130596     0.18100
N354        N  0.65584848  0.58739355  0.92336448    -0.88600
H355        H  0.71424590  0.59926268  0.14908588     0.35500
H356        H  0.74671953  0.57936488  0.11039024     0.40600
H357        H  0.67611136  0.58973730  0.89739760     0.40200
H358        H  0.64217517  0.62220560  0.91878888     0.35100
C359        C  0.69109541  0.36166858  0.50015949    -0.26600
C360        C  0.70627836  0.36560055  0.44960062    -0.14700
C361        C  0.70303296  0.41326066  0.42086365     0.36000
C362        C  0.68303625  0.45351939  0.44149643    -0.26100
C363        C  0.66331178  0.44760603  0.48831609    -0.15300
C364        C  0.66980800  0.40164330  0.52019888     0.37000
N365        N  0.65707332  0.39409592  0.57331075    -0.89500
H366        H  0.69487407  0.32617185  0.52363937     0.18200
H367        H  0.68089582  0.48923598  0.41782220     0.18100
N368        N  0.71906291  0.42247512  0.37010104    -0.88600
H369        H  0.63243561  0.38321100  0.57253496     0.35500
H370        H  0.66049211  0.42798076  0.59687200     0.40600
H371        H  0.73431893  0.39113789  0.35849645     0.40200
H372        H  0.73442855  0.45554666  0.37459130     0.35100
C373        C  0.34037858  0.36420019  0.45440208    -0.26600
C374        C  0.30725906  0.36915407  0.44030761    -0.14700
C375        C  0.29140507  0.41841064  0.44850013     0.36000
C376        C  0.30869294  0.46053469  0.47186271    -0.26100
C377        C  0.34180285  0.45618799  0.48926016    -0.15300
C378        C  0.35772570  0.40674502  0.47819728     0.37000
N379        N  0.39254233  0.39630175  0.98599552    -0.89500
H380        H  0.35300901  0.32693452  0.44674663     0.18200
H381        H  0.29572742  0.49791711  0.47296444     0.18100
N382        N  0.25814191  0.42839493  0.43177493    -0.88600
H383        H  0.39530936  0.36267621  0.00980773     0.35500
H384        H  0.40419178  0.38819376  0.94933014     0.40600
H385        H  0.24755174  0.39564289  0.41282050     0.40200
H386        H  0.25896101  0.45846935  0.40312543     0.35100
C387        C  0.31303007  0.54173816  0.05741271    -0.26600
C388        C  0.33771219  0.55162643  0.01816706    -0.14700
C389        C  0.34106552  0.60519304  0.00021114     0.36000
C390        C  0.32021337  0.64518413  0.02117859    -0.26100
C391        C  0.29622965  0.63393938  0.06007820    -0.15300
C392        C  0.29172851  0.58105158  0.07673162     0.37000
N393        N  0.26613540  0.56560821  0.11367077    -0.89500
H394        H  0.31027293  0.50205525  0.07350085     0.18200
H395        H  0.32361632  0.68589961  0.00826059     0.18100
N396        N  0.36696964  0.62097857  0.96455769    -0.88600
H397        H  0.25150304  0.53714789  0.09443461     0.35500
H398        H  0.25041628  0.59716708  0.12262029     0.40600
H399        H  0.37914286  0.65191008  0.48153737     0.40200
H400        H  0.35634622  0.63855473  0.93111972     0.35100
C401        C  0.44281533  0.51029103  0.42327699    -0.26600
C402        C  0.43056810  0.51875406  0.37258544    -0.14700
C403        C  0.39657287  0.52698662  0.36560817     0.36000
C404        C  0.37551002  0.52519984  0.41045254    -0.26100
C405        C  0.38728714  0.51621543  0.46279434    -0.15300
C406        C  0.42215564  0.50713398  0.46786285     0.37000
N407        N  0.43728833  0.48993505  0.51630682    -0.89500
H408        H  0.46893442  0.50288286  0.42808566     0.18200
H409        H  0.34933525  0.53003269  0.40427854     0.18100
N410        N  0.38240725  0.53526406  0.31382626    -0.88600
H411        H  0.45573519  0.51720447  0.52632850     0.35500
H412        H  0.44871634  0.44498086  0.00592097     0.40600
H413        H  0.40029265  0.53516382  0.28358500     0.40200
H414        H  0.37186738  0.57318034  0.31408790     0.35100
C415        C  0.39695522  0.54836824  0.07624282    -0.26600
C416        C  0.37985048  0.50153651  0.06148151    -0.14700
C417        C  0.38104393  0.45815796  0.09732047     0.36000
C418        C  0.40417779  0.45907502  0.13921106    -0.26100
C419        C  0.42415924  0.50407203  0.14844054    -0.15300
C420        C  0.41849113  0.55026994  0.11865741     0.37000
N421        N  0.43584399  0.59893460  0.12887599    -0.89500
H422        H  0.39589894  0.58334924  0.05159804     0.18200
H423        H  0.40648273  0.42451137  0.16450759     0.18100
N424        N  0.35851231  0.41459057  0.09333604    -0.88600
H425        H  0.41853191  0.62878527  0.13671945     0.35500
H426        H  0.44904320  0.60917744  0.09431905     0.40600
H427        H  0.34419553  0.41419976  0.12831311     0.40200
H428        H  0.37203786  0.37929349  0.09248783     0.35100
C429        C  0.56927333  0.54661356  0.40586050    -0.26600
C430        C  0.56845528  0.50698731  0.36604787    -0.14700
C431        C  0.59099604  0.46508288  0.36810253     0.36000
C432        C  0.61353445  0.46276291  0.40965052    -0.26100
C433        C  0.61538062  0.50230294  0.45055603    -0.15300
C434        C  0.59173757  0.54408512  0.44844762     0.37000
N435        N  0.58959255  0.58314474  0.49037566    -0.89500
H436        H  0.55139061  0.57853047  0.40533141     0.18200
H437        H  0.62779934  0.42671783  0.41069832     0.18100
N438        N  0.59085006  0.42375862  0.32823812    -0.88600
H439        H  0.59161430  0.62088013  0.47344584     0.35500
H440        H  0.56654230  0.58180625  0.00577336     0.40600
H441        H  0.58671638  0.38750971  0.34740436     0.40200
H442        H  0.61414835  0.42235972  0.31016330     0.35100
C443        C  0.61301298  0.53033155  0.09064530    -0.26600
C444        C  0.61346139  0.48937596  0.05092087    -0.14700
C445        C  0.58749080  0.45073137  0.05515336     0.36000
C446        C  0.56557555  0.45151698  0.09929203    -0.26100
C447        C  0.56637534  0.49217136  0.13800733    -0.15300
C448        C  0.59062066  0.53173288  0.13355143     0.37000
N449        N  0.59224251  0.57422147  0.17242707    -0.89500
H450        H  0.62869469  0.56464271  0.08764286     0.18200
H451        H  0.54624021  0.42185413  0.10131359     0.18100
N452        N  0.58067591  0.41226040  0.01406908    -0.88600
H453        H  0.61106043  0.60105003  0.16313170     0.35500
H454        H  0.59831115  0.55738672  0.20918694     0.40600
H455        H  0.60356427  0.39588990  0.49816312     0.40200
H456        H  0.56914879  0.43129689  0.98245051     0.35100
C457        C  0.66298433  0.09427481  0.51442839    -0.26600
C458        C  0.66174575  0.04617335  0.48478517    -0.14700
C459        C  0.68411860  0.04086097  0.44042627     0.36000
C460        C  0.70382637  0.08337880  0.42446883    -0.26100
C461        C  0.70281872  0.13199231  0.45126977    -0.15300
C462        C  0.68262103  0.13757107  0.49753562     0.37000
N463        N  0.68079399  0.18650784  0.52755831    -0.89500
H464        H  0.64819537  0.09908316  0.55033332     0.18200
H465        H  0.71958542  0.07862593  0.38946999     0.18100
N466        N  0.68548864  0.99296721  0.40897981    -0.88600
H467        H  0.65672460  0.20079419  0.52464355     0.35500
H468        H  0.69610092  0.21563439  0.51124563     0.40600
H469        H  0.70821877  0.97639693  0.91281118     0.40200
H470        H  0.67912673  0.00165421  0.87224075     0.35100
C471        C  0.70413985  0.91290447  0.06551644    -0.26600
C472        C  0.70170637  0.86436918  0.03868305    -0.14700
C473        C  0.68097962  0.86011665  0.99366550     0.36000
C474        C  0.66109017  0.90372934  0.97965189    -0.26100
C475        C  0.66053319  0.95118012  0.01052239    -0.15300
C476        C  0.68439279  0.95598542  0.05204445     0.37000
N477        N  0.68691381  0.00358426  0.08373588    -0.89500
H478        H  0.72061383  0.91681730  0.09923951     0.18200
H479        H  0.64714379  0.90025851  0.44284906     0.18100
N480        N  0.67957722  0.81236625  0.46125669    -0.88600
H481        H  0.71102273  0.01784665  0.08041931     0.35500
H482        H  0.68249255  0.99401953  0.12381731     0.40600
H483        H  0.69411128  0.78249413  0.97687174     0.40200
H484        H  0.68772563  0.82052752  0.42235071     0.35100
C485        C  0.31320890  0.85402169  0.00982755    -0.26600
C486        C  0.28944523  0.86538515  0.04920213    -0.14700
C487        C  0.28704093  0.91751167  0.06991745     0.36000
C488        C  0.30926906  0.95609353  0.05240323    -0.26100
C489        C  0.33389175  0.94594482  0.01302798    -0.15300
C490        C  0.33578590  0.89296509  0.99221408     0.37000
N491        N  0.36031202  0.87868302  0.45702000    -0.89500
H492        H  0.31584453  0.81348173  0.99534293     0.18200
H493        H  0.30749342  0.99520273  0.07051776     0.18100
N494        N  0.26311583  0.93258692  0.11013646    -0.88600
H495        H  0.34936717  0.86367619  0.42234171     0.35500
H496        H  0.37355018  0.84784266  0.47454788     0.40600
H497        H  0.24708354  0.90149017  0.11921346     0.40200
H498        H  0.24849665  0.96260960  0.09408425     0.35100
C499        C  0.30684086  0.04140099  0.46823669    -0.26600
C500        C  0.33961407  0.04548992  0.48728045    -0.14700
C501        C  0.35596143  0.09481757  0.47776225     0.36000
C502        C  0.33944003  0.13725834  0.45308892    -0.26100
C503        C  0.30681621  0.13226190  0.43638172    -0.15300
C504        C  0.29046795  0.08328581  0.44358951     0.37000
N505        N  0.25760557  0.07336715  0.42467070    -0.89500
H506        H  0.29356166  0.00424855  0.46867457     0.18200
H507        H  0.35231276  0.17452131  0.44693930     0.18100
N508        N  0.38975455  0.10195233  0.49148000    -0.88600
H509        H  0.25894539  0.04251489  0.39641039     0.35500
H510        H  0.24787397  0.10572209  0.40448618     0.40600
H511        H  0.39359682  0.13271936  0.01157946     0.40200
H512        H  0.40287123  0.11078514  0.45644420     0.35100
C513        C  0.39306414  0.94690716  0.07268698    -0.26600
C514        C  0.37685323  0.99441479  0.05843771    -0.14700
C515        C  0.37944666  0.03831661  0.09432211     0.36000
C516        C  0.40304405  0.03652237  0.13562310    -0.26100
C517        C  0.42221746  0.99073523  0.14443142    -0.15300
C518        C  0.41528957  0.94441896  0.11410117     0.37000
N519        N  0.43161251  0.89453895  0.12144623    -0.89500
H520        H  0.39090610  0.91173158  0.04787281     0.18200
H521        H  0.40652236  0.07118266  0.16095655     0.18100
N522        N  0.35864294  0.08407701  0.08956292    -0.88600
H523        H  0.42684712  0.88085825  0.16013793     0.35500
H524        H  0.45687430  0.89930765  0.11480068     0.40600
H525        H  0.36459085  0.11289541  0.11828442     0.40200
H526        H  0.33453902  0.07216558  0.09793461     0.35100
C527        C  0.43995725  0.98793813  0.41983606    -0.26600
C528        C  0.42766756  0.97806521  0.36925975    -0.14700
C529        C  0.39347562  0.97215268  0.36213558     0.36000
C530        C  0.37243421  0.97565125  0.40694081    -0.26100
C531        C  0.38435466  0.98490236  0.45928928    -0.15300
C532        C  0.41927380  0.99381303  0.46415168     0.37000
N533        N  0.43444498  0.01361363  0.51191091    -0.89500
H534        H  0.46615536  0.99482766  0.42459730     0.18200
H535        H  0.34619961  0.97159877  0.40075614     0.18100
N536        N  0.37918304  0.96362787  0.31035633    -0.88600
H537        H  0.44596880  0.04984010  0.50347215     0.35500
H538        H  0.45384249  0.98405409  0.02150182     0.40600
H539        H  0.39714255  0.96132675  0.28027991     0.40200
H540        H  0.36465101  0.99674159  0.30192945     0.35100
C541        C  0.61262877  0.02905515  0.40752575    -0.26600
C542        C  0.61341831  0.99071451  0.44938797    -0.14700
C543        C  0.58839492  0.95027858  0.44711534     0.36000
C544        C  0.56654531  0.94795862  0.40367911    -0.26100
C545        C  0.56634988  0.98718247  0.36409085    -0.15300
C546        C  0.58990674  0.02755929  0.36606579     0.37000
N547        N  0.59074028  0.06810300  0.32604110    -0.89500
H548        H  0.62796726  0.06397724  0.40750702     0.18200
H549        H  0.54769710  0.91742351  0.40329004     0.18100
N550        N  0.58150757  0.91443051  0.49016454    -0.88600
H551        H  0.61399868  0.06761397  0.30778483     0.35500
H552        H  0.58766106  0.10495491  0.34509857     0.40600
H553        H  0.60251117  0.89453215  0.50232171     0.40200
H554        H  0.57114661  0.93550848  0.52219185     0.35100
C555        C  0.61397777  0.96874804  0.09381771    -0.26600
C556        C  0.61288031  0.00633405  0.05136721    -0.14700
C557        C  0.58666784  0.04470882  0.05525781     0.36000
C558        C  0.56428262  0.04378615  0.09887315    -0.26100
C559        C  0.56547980  0.00433111  0.13822762    -0.15300
C560        C  0.59151203  0.96772427  0.13615045     0.37000
N561        N  0.59611533  0.92834049  0.17662799    -0.89500
H562        H  0.63075096  0.93575981  0.09383947     0.18200
H563        H  0.54422968  0.07216743  0.09984649     0.18100
N564        N  0.57926583  0.08170529  0.01373213    -0.88600
H565        H  0.57683594  0.90089202  0.17533431     0.35500
H566        H  0.59650687  0.94713021  0.21409197     0.40600
H567        H  0.60106042  0.10245393  0.49917163     0.40200
H568        H  0.56905447  0.06143408  0.98136982     0.35100
O569        O  0.46055830  0.03662461  0.70244547    -0.74700
O570        O  0.52960840  0.03355112  0.80635152    -0.74700
O571        O  0.52774222  0.04219982  0.69791938    -0.74800
O572        O  0.46293345  0.02913638  0.80966904    -0.74800
O573        O  0.46448315  0.94059030  0.80239757    -0.74800
O574        O  0.53102248  0.95394991  0.69365660    -0.74800
O575        O  0.53095369  0.94500110  0.80187582    -0.74700
O576        O  0.46423782  0.94868185  0.69607122    -0.74800
Ni577      Ni  0.49518784  0.03862759  0.75431055     1.25400
Ni578      Ni  0.49783749  0.94400481  0.74804551     1.25400
C579        C  0.45057813  0.99229012  0.68277435     0.87500
C580        C  0.54128102  0.98882270  0.82181882     0.87400
C581        C  0.54065818  0.99994138  0.67799113     0.87400
C582        C  0.45279217  0.98301099  0.82364023     0.87600
C583        C  0.35840713  0.99395085  0.50536066    -0.02800
C584        C  0.63757980  0.99913192  0.49814058    -0.02800
O585        O  0.52831223  0.45571921  0.69771140    -0.74700
O586        O  0.46549771  0.46933782  0.81243442    -0.74700
O587        O  0.46151267  0.46293235  0.70544965    -0.74800
O588        O  0.53177612  0.46262223  0.80625347    -0.74800
O589        O  0.53441393  0.55113256  0.80423906    -0.74800
O590        O  0.46591126  0.55096876  0.70089543    -0.74800
O591        O  0.46806600  0.55791815  0.80755619    -0.74700
O592        O  0.53249161  0.54399114  0.69565280    -0.74800
Ni593      Ni  0.49672999  0.45946096  0.75556762     1.25400
Ni594      Ni  0.50043940  0.55411989  0.75171326     1.25400
C595        C  0.54127276  0.49792762  0.67829188     0.87500
C596        C  0.45614780  0.51557239  0.82802437     0.87400
C597        C  0.45168476  0.50755261  0.68726204     0.87400
C598        C  0.54416243  0.50664429  0.82283111     0.87600
C599        C  0.36114211  0.50725577  0.50843102    -0.02800
C600        C  0.63892188  0.49516754  0.49960570    -0.02800
O601        O  0.03277421  0.45677369  0.94318916    -0.74700
O602        O  0.96425474  0.44517510  0.55407844    -0.74700
O603        O  0.96646037  0.45948676  0.94553635    -0.74800
O604        O  0.03140793  0.44035671  0.55212292    -0.74800
O605        O  0.03436735  0.52849343  0.56174127    -0.74800
O606        O  0.96728974  0.54762161  0.95287312    -0.74800
O607        O  0.96703062  0.53331835  0.56410842    -0.74700
O608        O  0.03408573  0.54520176  0.95183504    -0.74800
Ni609      Ni  0.99921468  0.44933939  0.99763239     1.25400
Ni610      Ni  0.00113230  0.54394223  0.00666761     1.25400
C611        C  0.04396262  0.50237671  0.92914805     0.87500
C612        C  0.95437792  0.48837662  0.57650084     0.87400
C613        C  0.95593212  0.50498775  0.93124519     0.87400
C614        C  0.04432379  0.48153541  0.57361204     0.87600
C615        C  0.13641439  0.49354297  0.74802587    -0.02800
C616        C  0.85946258  0.50341479  0.75637761    -0.02800
O617        O  0.02896773  0.06594721  0.53626277    -0.74700
O618        O  0.96154225  0.02465432  0.93952079    -0.74700
O619        O  0.96352688  0.04751249  0.54481460    -0.74800
O620        O  0.02712855  0.04494189  0.93077076    -0.74800
O621        O  0.03676146  0.95911039  0.94649486    -0.74800
O622        O  0.97464121  0.96308849  0.56453462    -0.74800
O623        O  0.97143238  0.93948564  0.95760952    -0.74700
O624        O  0.03991551  0.98060155  0.55221546    -0.74800
Ni625      Ni  0.99486531  0.04706912  0.48677500     1.25400
Ni626      Ni  0.00541948  0.95579624  0.50609973     1.25400
C627        C  0.04535485  0.03020962  0.56058777     0.87500
C628        C  0.95532498  0.97505361  0.93251698     0.87400
C629        C  0.95947603  0.00677153  0.57457952     0.87400
C630        C  0.04231687  0.00150364  0.91985860     0.87600
C631        C  0.13377900  0.01658897  0.73667921    -0.02800
C632        C  0.86863242  0.98993629  0.75667047    -0.02800
O633        O  0.79801260  0.19048017  0.87921049    -0.74700
O634        O  0.74746665  0.29843666  0.95245242    -0.74700
O635        O  0.74771554  0.19066613  0.95249113    -0.74800
O636        O  0.79743648  0.29875202  0.88022514    -0.74800
O637        O  0.76231146  0.29660327  0.81210202    -0.74800
O638        O  0.71179157  0.19052572  0.88545616    -0.74800
O639        O  0.71229652  0.29814660  0.88437285    -0.74700
O640        O  0.76181370  0.18857315  0.81291650    -0.74800
Ni641      Ni  0.77400056  0.24443995  0.91843931     1.25400
Ni642      Ni  0.73575529  0.24335324  0.84640782     1.25400
C643        C  0.78827681  0.17148453  0.83415258     0.87500
C644        C  0.72196978  0.31695254  0.92939360     0.87400
C645        C  0.72135676  0.17327706  0.93081974     0.87400
C646        C  0.78780323  0.31596091  0.83486819     0.87600
O647        O  0.70924104  0.80330091  0.60737522    -0.74700
O648        O  0.75839981  0.69964813  0.68482386    -0.74700
O649        O  0.75767450  0.80682535  0.68131606    -0.74800
O650        O  0.70986665  0.69514429  0.61122025    -0.74800
O651        O  0.74703691  0.69279991  0.54490967    -0.74800
O652        O  0.79471849  0.80447721  0.61524043    -0.74800
O653        O  0.79589553  0.69759366  0.61908295    -0.74700
O654        O  0.74626295  0.80093660  0.54085212    -0.74800
Ni655      Ni  0.73234170  0.75131888  0.64830350     1.25400
Ni656      Ni  0.77223795  0.74889099  0.57755121     1.25400
C657        C  0.71989349  0.81982831  0.56201299     0.87500
C658        C  0.78563616  0.68235376  0.66518726     0.87400
C659        C  0.78478256  0.82299729  0.66061564     0.87400
C660        C  0.72082527  0.67499391  0.56728999     0.87600
O661        O  0.29921997  0.30460763  0.86850209    -0.74700
O662        O  0.24875228  0.19564236  0.79902316    -0.74700
O663        O  0.24698547  0.30356492  0.80035875    -0.74800
O664        O  0.30017122  0.19631567  0.86758547    -0.74800
O665        O  0.26462617  0.19454966  0.93623606    -0.74800
O666        O  0.21341555  0.30235277  0.87119719    -0.74800
O667        O  0.21334932  0.19587116  0.86784631    -0.74700
O668        O  0.26482229  0.30237708  0.93865177    -0.74800
Ni669      Ni  0.27516703  0.25013506  0.83142930     1.25400
Ni670      Ni  0.23797858  0.24871793  0.90602749     1.25400
C671        C  0.28997839  0.32192399  0.91456262     0.87500
C672        C  0.22227231  0.17894518  0.82141927     0.87400
C673        C  0.22079286  0.31976483  0.82465737     0.87400
C674        C  0.29032276  0.17679002  0.91225452     0.87600
O675        O  0.19906970  0.69407702  0.63390225    -0.74700
O676        O  0.24675429  0.80037995  0.55480101    -0.74700
O677        O  0.24931092  0.69327430  0.56159015    -0.74800
O678        O  0.19586975  0.80059646  0.62527696    -0.74800
O679        O  0.22955201  0.80852900  0.69440051    -0.74800
O680        O  0.28491562  0.70144448  0.62871215    -0.74800
O681        O  0.28079737  0.80903425  0.62394008    -0.74700
O682        O  0.23471142  0.70112747  0.70086233    -0.74800
Ni683      Ni  0.22150327  0.74675149  0.59153858     1.25400
Ni684      Ni  0.25883500  0.75531854  0.66434834     1.25400
C685        C  0.20911663  0.68004752  0.68031715     0.87500
C686        C  0.27146161  0.82266473  0.57729403     0.87400
C687        C  0.27584420  0.67967763  0.58458301     0.87400
C688        C  0.20329275  0.82236677  0.66991001     0.87600
C689        C  0.81783787  0.92754878  0.75953328    -0.26600
C690        C  0.84799272  0.94167339  0.73467628    -0.14700
C691        C  0.85928361  0.90675527  0.69291878     0.36000
C692        C  0.83788617  0.86992576  0.66981907    -0.26100
C693        C  0.80592482  0.86224397  0.68932942    -0.15300
C694        C  0.79630460  0.88964008  0.73666035     0.37000
N695        N  0.76473069  0.87983938  0.76106230    -0.89500
H696        H  0.81019321  0.94816589  0.79569808     0.18200
H697        H  0.84707568  0.84594158  0.63670268     0.18100
N698        N  0.89290480  0.90547654  0.67519879    -0.88600
H699        H  0.76080460  0.90552591  0.79361220     0.35500
H700        H  0.76525003  0.84145322  0.77676642     0.40600
H701        H  0.90229904  0.86754300  0.68246644     0.40200
H702        H  0.89352347  0.91133953  0.63381669     0.35100
C703        C  0.81463716  0.04692124  0.75579561    -0.26600
C704        C  0.84833443  0.04227036  0.76950229    -0.14700
C705        C  0.86248012  0.08769257  0.79640398     0.36000
C706        C  0.84227033  0.12944436  0.81448847    -0.26100
C707        C  0.80829140  0.12941056  0.80684766    -0.15300
C708        C  0.79462189  0.08852606  0.77495631     0.37000
N709        N  0.76029011  0.08688193  0.76258412    -0.89500
H710        H  0.80303784  0.01815520  0.72988774     0.18200
H711        H  0.85344457  0.16195692  0.83656406     0.18100
N712        N  0.89677966  0.09297615  0.80908480    -0.88600
H713        H  0.75438513  0.12067126  0.74060496     0.35500
H714        H  0.74674589  0.08698755  0.79836487     0.40600
H715        H  0.91059244  0.06043058  0.79729677     0.40200
H716        H  0.89881167  0.09519000  0.85068902     0.35100
C717        C  0.13863189  0.93106619  0.67869326    -0.26600
C718        C  0.14873778  0.96059041  0.72395148    -0.14700
C719        C  0.17077666  0.93466924  0.75904958     0.36000
C720        C  0.18786211  0.88879174  0.74172379    -0.26100
C721        C  0.18160420  0.86541929  0.69155670    -0.15300
C722        C  0.15488452  0.88495152  0.66160751     0.37000
N723        N  0.14438825  0.85871491  0.61328267    -0.89500
H724        H  0.11780694  0.94352959  0.65558351     0.18200
H725        H  0.20654587  0.87217726  0.76728257     0.18100
N726        N  0.17669469  0.95559984  0.81157759    -0.88600
H727        H  0.12578615  0.88010204  0.59447151     0.35500
H728        H  0.13400429  0.82229008  0.62426096     0.40600
H729        H  0.16982594  0.92656175  0.83924766     0.40200
H730        H  0.20190972  0.96230926  0.81583135     0.35100
C731        C  0.14718540  0.11097914  0.76520497    -0.26600
C732        C  0.15976701  0.06115846  0.74797751    -0.14700
C733        C  0.19477495  0.05656560  0.74422224     0.36000
C734        C  0.21485392  0.09574829  0.76786423    -0.26100
C735        C  0.20115097  0.14058073  0.79293811    -0.15300
C736        C  0.16721113  0.14938380  0.78922572     0.37000
N737        N  0.15288181  0.19733556  0.81014552    -0.89500
H738        H  0.12092765  0.11817066  0.76490954     0.18200
H739        H  0.24133777  0.09068576  0.76717133     0.18100
N740        N  0.21048750  0.01488482  0.71417893    -0.88600
H741        H  0.13511362  0.18694818  0.83876188     0.35500
H742        H  0.14099660  0.21662825  0.77887687     0.40600
H743        H  0.22747133  0.99610263  0.73880716     0.40200
H744        H  0.22391648  0.03231022  0.68298773     0.35100
C745        C  0.10314728  0.03988376  0.59221972    -0.26600
C746        C  0.06938498  0.04552735  0.60179069    -0.14700
C747        C  0.05849262  0.05992158  0.65332930     0.36000
C748        C  0.08033340  0.05613012  0.69637211    -0.26100
C749        C  0.11310441  0.03841912  0.68863955    -0.15300
C750        C  0.12541175  0.04054147  0.63478781     0.41800
N751        N  0.15978096  0.04145828  0.62162074    -0.89500
H752        H  0.11224080  0.03356492  0.55181271     0.18200
H753        H  0.07099783  0.06473662  0.73613601     0.18100
N754        N  0.02490625  0.07563011  0.66207532    -0.88600
H755        H  0.17129155  0.00710815  0.63473216     0.35500
H756        H  0.17038271  0.07475646  0.63979393     0.40600
H757        H  0.02118179  0.11103983  0.64135169     0.40200
H758        H  0.02059646  0.08416533  0.70254344     0.35100
C759        C  0.06105998  0.97205967  0.82976983    -0.26600
C760        C  0.06724198  0.00091304  0.87669554    -0.14700
C761        C  0.09708119  0.02914087  0.88135114     0.36000
C762        C  0.11903472  0.03016695  0.83795131    -0.26100
C763        C  0.11141014  0.00714939  0.78757830    -0.15300
C764        C  0.08277699  0.97433939  0.78567016     0.37000
N765        N  0.07490852  0.94455678  0.73841329    -0.89500
H766        H  0.03865734  0.94882800  0.82663476     0.18200
H767        H  0.14234738  0.04959129  0.84474503     0.18100
N768        N  0.10644461  0.05644120  0.92970429    -0.88600
H769        H  0.05162776  0.95623689  0.72555072     0.35500
H770        H  0.07360087  0.90436044  0.74858041     0.40600
H771        H  0.08912769  0.05176068  0.96035679     0.40200
H772        H  0.10758041  0.09707594  0.92128813     0.35100
C773        C  0.91045743  0.93106031  0.80714631    -0.26600
C774        C  0.88448141  0.96834192  0.80936353    -0.14700
C775        C  0.87493222  0.98526418  0.86166304     0.36000
C776        C  0.89787663  0.98348144  0.90315939    -0.26100
C777        C  0.92876917  0.96009723  0.89508668    -0.15300
C778        C  0.93388390  0.92888746  0.84821730     0.37000
N779        N  0.96344673  0.89891859  0.83823771    -0.89500
H780        H  0.91582751  0.90996568  0.77031637     0.18200
H781        H  0.89201837  0.00244493  0.94117402     0.18100
N782        N  0.84216071  0.00313499  0.87332801    -0.88600
H783        H  0.95675225  0.85889680  0.83474369     0.35500
H784        H  0.97979919  0.90151164  0.86996443     0.40600
H785        H  0.84350589  0.04069537  0.89141104     0.40200
H786        H  0.83182003  0.97722977  0.90136767     0.35100
C787        C  0.90465767  0.02461053  0.61646182    -0.26600
C788        C  0.93770084  0.01044322  0.62212544    -0.14700
C789        C  0.94980871  0.00007128  0.67348358     0.36000
C790        C  0.92843039  0.00258395  0.71780972    -0.26100
C791        C  0.89390235  0.00723053  0.71189368    -0.15300
C792        C  0.88261595  0.02213942  0.66020386     0.37000
N793        N  0.84837672  0.03096221  0.65085312    -0.89500
H794        H  0.89536728  0.03404264  0.57714734     0.18200
H795        H  0.93944334  0.99805109  0.75639107     0.18100
N796        N  0.98382687  0.98647793  0.68066288    -0.88600
H797        H  0.84565422  0.06925547  0.63553294     0.35500
H798        H  0.84050084  0.00374163  0.62182596     0.40600
H799        H  0.98770589  0.94898399  0.66342691     0.40200
H800        H  0.98925593  0.98263083  0.72125245     0.35100
C801        C  0.84021950  0.40441812  0.74448811    -0.26600
C802        C  0.83757969  0.45416539  0.77120775    -0.14700
C803        C  0.81805821  0.45585616  0.81900478     0.36000
C804        C  0.80271170  0.41006627  0.83827668    -0.26100
C805        C  0.80496122  0.36173409  0.81087350    -0.15300
C806        C  0.82370675  0.35875750  0.76302236     0.37000
N807        N  0.82828578  0.30970669  0.73395280    -0.89500
H808        H  0.85659417  0.39924342  0.71069393     0.18200
H809        H  0.78899998  0.41238661  0.87562376     0.18100
N810        N  0.81423679  0.50428000  0.84898106    -0.88600
H811        H  0.81789142  0.31440130  0.69618769     0.35500
H812        H  0.81595513  0.27812801  0.75216971     0.40600
H813        H  0.82320311  0.49812799  0.88752982     0.40200
H814        H  0.78913474  0.51281022  0.85238027     0.35100
C815        C  0.85495564  0.59996184  0.72486197    -0.26600
C816        C  0.83818474  0.55285577  0.74016693    -0.14700
C817        C  0.80336014  0.55191398  0.73104192     0.36000
C818        C  0.78723690  0.59707062  0.71208380    -0.26100
C819        C  0.80440593  0.64183684  0.69494729    -0.15300
C820        C  0.83881275  0.64395533  0.70259377     0.37000
N821        N  0.85822721  0.68984034  0.68881508    -0.89500
H822        H  0.88139719  0.60231932  0.72927867     0.18200
H823        H  0.76088946  0.59516736  0.70657293     0.18100
N824        N  0.78391979  0.50462282  0.73564731    -0.88600
H825        H  0.86951037  0.70342313  0.72379471     0.35500
H826        H  0.84355645  0.72122419  0.67614701     0.40600
H827        H  0.76431879  0.51225758  0.76200190     0.40200
H828        H  0.77409360  0.49557552  0.69811698     0.35100
C829        C  0.15663885  0.63710038  0.70564046    -0.26600
C830        C  0.19085980  0.63841463  0.70976075    -0.14700
C831        C  0.20666599  0.59881047  0.73995469     0.36000
C832        C  0.18860194  0.55373980  0.75614861    -0.26100
C833        C  0.15515452  0.54740332  0.74263032    -0.15300
C834        C  0.13854163  0.59335174  0.72376612     0.37000
N835        N  0.10346599  0.59425388  0.71874317    -0.89500
H836        H  0.14385564  0.66944835  0.68638024     0.18200
H837        H  0.20115255  0.52321754  0.77818254     0.18100
N838        N  0.24081470  0.60392835  0.75368861    -0.88600
H839        H  0.09767993  0.60161722  0.67880155     0.35500
H840        H  0.09444866  0.62598294  0.74180700     0.40600
H841        H  0.25479158  0.60171933  0.71854127     0.40200
H842        H  0.24824256  0.57206206  0.77731726     0.35100
C843        C  0.20857094  0.39015474  0.75618737    -0.26600
C844        C  0.19828714  0.35906726  0.79972693    -0.14700
C845        C  0.16587503  0.36576987  0.81922698     0.36000
C846        C  0.14629458  0.40673924  0.79979419    -0.26100
C847        C  0.15813323  0.44403089  0.76209337    -0.15300
C848        C  0.18842834  0.43103005  0.73602681     0.37000
N849        N  0.19913710  0.45906113  0.68939587    -0.89500
H850        H  0.23252082  0.38331803  0.73802336     0.18200
H851        H  0.12148555  0.40921848  0.81562032     0.18100
N852        N  0.15228151  0.33075372  0.85870768    -0.88600
H853        H  0.22247276  0.47496215  0.69669214     0.35500
H854        H  0.20155361  0.43152096  0.65805660     0.40600
H855        H  0.13125961  0.31282199  0.84281947     0.40200
H856        H  0.14509630  0.35360151  0.89194395     0.35100
C857        C  0.10035357  0.50399719  0.60519838    -0.26600
C858        C  0.07138762  0.47481090  0.61221083    -0.14700
C859        C  0.06932203  0.43865334  0.65501392     0.36000
C860        C  0.09388866  0.43936763  0.69455558    -0.26100
C861        C  0.11890322  0.47850671  0.69421763    -0.15300
C862        C  0.12499836  0.50370851  0.64413326     0.37000
N863        N  0.15609768  0.52769509  0.63155063    -0.89500
H864        H  0.10392573  0.52715979  0.56919184     0.18200
H865        H  0.09084858  0.41434640  0.72929823     0.18100
N866        N  0.04149543  0.40363908  0.65990420    -0.88600
H867        H  0.15194589  0.56663383  0.61896273     0.35500
H868        H  0.16629975  0.50702640  0.59895087     0.40600
H869        H  0.02057863  0.42714949  0.66598479     0.40200
H870        H  0.04366983  0.37982989  0.69378256     0.35100
C871        C  0.07711195  0.50718200  0.78804126    -0.26600
C872        C  0.11157143  0.50468698  0.79547520    -0.14700
C873        C  0.12305043  0.51099524  0.84900349     0.36000
C874        C  0.10072457  0.51117353  0.89230973    -0.26100
C875        C  0.06698515  0.50610341  0.88373305    -0.15300
C876        C  0.05494011  0.50622747  0.83141360     0.37000
N877        N  0.02005581  0.50451372  0.82261601    -0.89500
H878        H  0.06687151  0.50996101  0.74855130     0.18200
H879        H  0.10989525  0.51361291  0.93285120     0.18100
N880        N  0.15752868  0.51438400  0.85988389    -0.88600
H881        H  0.01517796  0.50359153  0.78173571     0.35500
H882        H  0.00997918  0.53990378  0.83760606     0.40600
H883        H  0.16377442  0.48319805  0.88527664     0.40200
H884        H  0.16188728  0.55015986  0.88020994     0.35100
C885        C  0.91145026  0.55258877  0.88058336    -0.26600
C886        C  0.93046511  0.50665693  0.88889139    -0.14700
C887        C  0.92435897  0.46111574  0.85721494     0.36000
C888        C  0.89992577  0.46255544  0.81893949    -0.26100
C889        C  0.88137019  0.50874285  0.80770339    -0.15300
C890        C  0.88668759  0.55428180  0.84095361     0.37000
N891        N  0.86778223  0.60201269  0.83504072    -0.89500
H892        H  0.91572748  0.58728945  0.90551682     0.18200
H893        H  0.89706446  0.42749964  0.79403474     0.18100
N894        N  0.94379435  0.41355878  0.86217114    -0.88600
H895        H  0.87611736  0.63190874  0.86086245     0.35500
H896        H  0.84354975  0.59392285  0.84654162     0.40600
H897        H  0.96752913  0.42233862  0.84833416     0.40200
H898        H  0.93499405  0.38287507  0.83767188     0.35100
C899        C  0.89668269  0.47584175  0.61262093    -0.26600
C900        C  0.93013370  0.48730885  0.62070354    -0.14700
C901        C  0.94030374  0.50473542  0.67088199     0.36000
C902        C  0.91774224  0.50883878  0.71279984    -0.26100
C903        C  0.88394118  0.49473479  0.70755366    -0.15300
C904        C  0.87342970  0.48107384  0.65500732     0.37000
N905        N  0.83914918  0.47445901  0.64398164    -0.89500
H906        H  0.88835504  0.46513806  0.57290952     0.18200
H907        H  0.92751806  0.52588226  0.74908932     0.18100
N908        N  0.97398203  0.51917711  0.67937603    -0.88600
H909        H  0.83570483  0.43671852  0.62709015     0.35500
H910        H  0.83256548  0.50259555  0.61544559     0.40600
H911        H  0.98310761  0.49459888  0.70916082     0.40200
H912        H  0.97472248  0.55851285  0.69327893     0.35100
C913        C  0.68521466  0.53760854  0.55269623    -0.26600
C914        C  0.66371423  0.54251177  0.50867426    -0.14700
C915        C  0.66763012  0.58898262  0.47679816     0.36000
C916        C  0.68690961  0.63188350  0.49580808    -0.26100
C917        C  0.70377398  0.62846407  0.54431697    -0.15300
C918        C  0.70411556  0.57979729  0.57134846     0.37000
N919        N  0.72327293  0.57213897  0.61843319    -0.89500
H920        H  0.68548643  0.50164980  0.57579486     0.18200
H921        H  0.68844088  0.66815439  0.47277945     0.18100
N922        N  0.65422438  0.59226657  0.42420606    -0.88600
H923        H  0.71511051  0.59888034  0.64786654     0.35500
H924        H  0.74785573  0.58052906  0.60908154     0.40600
H925        H  0.67380326  0.59607286  0.39706394     0.40200
H926        H  0.64023724  0.62701663  0.42201504     0.35100
C927        C  0.68907238  0.35933135  0.00320925    -0.26600
C928        C  0.70434465  0.36296999  0.95271281    -0.14700
C929        C  0.70169079  0.41066257  0.92396115     0.36000
C930        C  0.68216421  0.45136374  0.94449207    -0.26100
C931        C  0.66220607  0.44585716  0.99104297    -0.15300
C932        C  0.66816359  0.39984345  0.02310452     0.37000
N933        N  0.65536866  0.39285369  0.07625508    -0.89500
H934        H  0.69249464  0.32374930  0.02671174     0.18200
H935        H  0.68040332  0.48697399  0.92063331     0.18100
N936        N  0.71766690  0.41941367  0.87308623    -0.88600
H937        H  0.63074491  0.38179645  0.07551931     0.35500
H938        H  0.65873230  0.42699144  0.09943495     0.40600
H939        H  0.73242204  0.38755808  0.86121189     0.40200
H940        H  0.73340919  0.45201908  0.87743217     0.35100
C941        C  0.34057405  0.36158902  0.95283891    -0.26600
C942        C  0.30749074  0.36709004  0.93913904    -0.14700
C943        C  0.29201460  0.41669377  0.94678065     0.36000
C944        C  0.30966575  0.45867413  0.96965212    -0.26100
C945        C  0.34270745  0.45366772  0.98715304    -0.15300
C946        C  0.35829702  0.40390211  0.97605365     0.37000
N947        N  0.39186039  0.39963673  0.48956213    -0.89500
H948        H  0.35293201  0.32408232  0.94512934     0.18200
H949        H  0.29705745  0.49638167  0.97044212     0.18100
N950        N  0.25883519  0.42712384  0.92992706    -0.88600
H951        H  0.39424680  0.36680702  0.51463241     0.35500
H952        H  0.40409626  0.39073769  0.45360100     0.40600
H953        H  0.24789971  0.39420432  0.91178567     0.40200
H954        H  0.25991733  0.45653555  0.90061349     0.35100
C955        C  0.31209630  0.54433697  0.55899508    -0.26600
C956        C  0.33640753  0.55409147  0.51915676    -0.14700
C957        C  0.33929336  0.60725376  0.50008136     0.36000
C958        C  0.31850410  0.64722312  0.52102343    -0.26100
C959        C  0.29522789  0.63615892  0.56105435    -0.15300
C960        C  0.29107459  0.58361467  0.57868966     0.37000
N961        N  0.26619943  0.56851024  0.61706681    -0.89500
H962        H  0.30945266  0.50489648  0.57543474     0.18200
H963        H  0.32146859  0.68776804  0.50731976     0.18100
N964        N  0.36468179  0.62264643  0.46329708    -0.88600
H965        H  0.25141595  0.53947757  0.59912961     0.35500
H966        H  0.25042309  0.60001626  0.62608972     0.40600
H967        H  0.38130574  0.64978871  0.98376662     0.40200
H968        H  0.35356900  0.63951195  0.42990929     0.35100
C969        C  0.44427598  0.50627138  0.92245482    -0.26600
C970        C  0.43258938  0.51941189  0.87240954    -0.14700
C971        C  0.39884542  0.53021853  0.86570089     0.36000
C972        C  0.37736889  0.52555319  0.90978814    -0.26100
C973        C  0.38866972  0.51331871  0.96163323    -0.15300
C974        C  0.42332560  0.50199877  0.96661327     0.37000
N975        N  0.43784429  0.48179083  0.01443291    -0.89500
H976        H  0.47013745  0.49667012  0.92699755     0.18200
H977        H  0.35131980  0.53185363  0.90357874     0.18100
N978        N  0.38530253  0.54425824  0.81478619    -0.88600
H979        H  0.45659479  0.50782286  0.02610533     0.35500
H980        H  0.44852383  0.45309137  0.50944065     0.40600
H981        H  0.40340538  0.54598144  0.78494646     0.40200
H982        H  0.37566196  0.58264816  0.81859120     0.35100
C983        C  0.39528471  0.55310781  0.57827973    -0.26600
C984        C  0.37884870  0.50553108  0.56332631    -0.14700
C985        C  0.38099950  0.46187320  0.59881347     0.36000
C986        C  0.40459543  0.46353462  0.64000702    -0.26100
C987        C  0.42403099  0.50911158  0.64914815    -0.15300
C988        C  0.41736711  0.55541535  0.62014227     0.37000
N989        N  0.43441334  0.60438142  0.63027652    -0.89500
H990        H  0.39350018  0.58822400  0.55391402     0.18200
H991        H  0.40796414  0.42889902  0.66484234     0.18100
N992        N  0.35982125  0.41644636  0.59370173    -0.88600
H993        H  0.41692582  0.63378729  0.63881041     0.35500
H994        H  0.44710872  0.61518457  0.59540405     0.40600
H995        H  0.33584868  0.42876590  0.60260389     0.40200
H996        H  0.36567489  0.38760857  0.62194388     0.35100
C997        C  0.57023801  0.54565791  0.90451637    -0.26600
C998        C  0.56951314  0.50575298  0.86493545    -0.14700
C999        C  0.59142349  0.46304745  0.86838425     0.36000
C1000       C  0.61313891  0.46026154  0.91112555    -0.26100
C1001       C  0.61495069  0.50032796  0.95158153    -0.15300
C1002       C  0.59204702  0.54291086  0.94795773     0.37000
N1003       N  0.59019178  0.58292220  0.98898137    -0.89500
H1004       H  0.55285995  0.57823883  0.90295678     0.18200
H1005       H  0.62693645  0.42377777  0.91325771     0.18100
N1006       N  0.59157704  0.42159103  0.82865607    -0.88600
H1007       H  0.59329527  0.62013453  0.97129657     0.35500
H1008       H  0.56620143  0.58034724  0.50793341     0.40600
H1009       H  0.58671046  0.38552601  0.84772723     0.40200
H1010       H  0.61519113  0.41948480  0.81177565     0.35100
C1011       C  0.61462272  0.53090669  0.58976705    -0.26600
C1012       C  0.61479932  0.49034558  0.54958821    -0.14700
C1013       C  0.58862378  0.45201181  0.55347459     0.36000
C1014       C  0.56629936  0.45341618  0.59705070    -0.26100
C1015       C  0.56715266  0.49403833  0.63581601    -0.15300
C1016       C  0.59197563  0.53268933  0.63226222     0.37000
N1017       N  0.59398086  0.57460385  0.67171362    -0.89500
H1018       H  0.63065362  0.56481852  0.58742518     0.18200
H1019       H  0.54671584  0.42415784  0.59867521     0.18100
N1020       N  0.58194388  0.41341502  0.51242878    -0.88600
H1021       H  0.61323744  0.60084817  0.66305971     0.35500
H1022       H  0.59960329  0.55705899  0.70831324     0.40600
H1023       H  0.60219098  0.39387006  0.00053309     0.40200
H1024       H  0.56981427  0.43214281  0.48122116     0.35100
C1025       C  0.66201430  0.09279094  0.01772110    -0.26600
C1026       C  0.66065551  0.04491988  0.98777161    -0.14700
C1027       C  0.68336202  0.03921221  0.94389869     0.36000
C1028       C  0.70370394  0.08115319  0.92885148    -0.26100
C1029       C  0.70269087  0.12968709  0.95569296    -0.15300
C1030       C  0.68214551  0.13565062  0.00146669     0.37000
N1031       N  0.68043780  0.18455904  0.03154024    -0.89500
H1032       H  0.64694823  0.09777845  0.05329516     0.18200
H1033       H  0.71966432  0.07626377  0.89410512     0.18100
N1034       N  0.68431884  0.99169235  0.91182386    -0.88600
H1035       H  0.65662354  0.19959836  0.02768989     0.35500
H1036       H  0.69639066  0.21323128  0.01596718     0.40600
H1037       H  0.70961240  0.97858457  0.40966756     0.40200
H1038       H  0.67983814  0.00219521  0.36938791     0.35100
C1039       C  0.70570667  0.91385387  0.56331311    -0.26600
C1040       C  0.70287821  0.86501285  0.53714936    -0.14700
C1041       C  0.68226579  0.86071282  0.49198292     0.36000
C1042       C  0.66267069  0.90451786  0.47748562    -0.26100
C1043       C  0.66229305  0.95219973  0.50801005    -0.15300
C1044       C  0.68635099  0.95721073  0.54916585     0.37000
N1045       N  0.68946135  0.00533342  0.57985808    -0.89500
H1046       H  0.72223672  0.91787793  0.59694927     0.18200
H1047       H  0.64560858  0.89958449  0.94495305     0.18100
N1048       N  0.67847205  0.81196319  0.96259534    -0.88600
H1049       H  0.71369940  0.01886540  0.57602088     0.35500
H1050       H  0.68508935  0.99667160  0.62017482     0.40600
H1051       H  0.69501959  0.78282573  0.47585431     0.40200
H1052       H  0.68647052  0.82050893  0.92372694     0.35100
C1053       C  0.31232103  0.85567802  0.51112459    -0.26600
C1054       C  0.28897558  0.86675372  0.55123973    -0.14700
C1055       C  0.28670394  0.91865276  0.57243429     0.36000
C1056       C  0.30878345  0.95731298  0.55481283    -0.26100
C1057       C  0.33312210  0.94744688  0.51494750    -0.15300
C1058       C  0.33470795  0.89478512  0.49328337     0.37000
N1059       N  0.36207409  0.87628348  0.95754673    -0.89500
H1060       H  0.31468540  0.81531997  0.49599816     0.18200
H1061       H  0.30703309  0.99626961  0.57314301     0.18100
N1062       N  0.26297291  0.93348479  0.61305875    -0.88600
H1063       H  0.35181212  0.86047664  0.92265504     0.35500
H1064       H  0.37502366  0.84589849  0.97637060     0.40600
H1065       H  0.24684656  0.90241427  0.62196592     0.40200
H1066       H  0.24838701  0.96376233  0.59749833     0.35100
C1067       C  0.30770123  0.03987422  0.96632093    -0.26600
C1068       C  0.34067459  0.04377212  0.98440692    -0.14700
C1069       C  0.35711672  0.09291745  0.97409988     0.36000
C1070       C  0.34033926  0.13554805  0.95038991    -0.26100
C1071       C  0.30739363  0.13092049  0.93547212    -0.15300
C1072       C  0.29099798  0.08207442  0.94298322     0.37000
N1073       N  0.25774164  0.07258081  0.92567852    -0.89500
H1074       H  0.29438063  0.00277884  0.96676947     0.18200
H1075       H  0.35325425  0.17267238  0.94360811     0.18100
N1076       N  0.39118640  0.09975531  0.98614344    -0.88600
H1077       H  0.25843602  0.04199080  0.89709160     0.35500
H1078       H  0.24765890  0.10515110  0.90632562     0.40600
H1079       H  0.39154458  0.13487301  0.51709699     0.40200
H1080       H  0.40369136  0.10837352  0.95048274     0.35100
C1081       C  0.39346105  0.94761201  0.57243413    -0.26600
C1082       C  0.37642629  0.99494149  0.56004863    -0.14700
C1083       C  0.37870920  0.03785461  0.59713186     0.36000
C1084       C  0.40273882  0.03577055  0.63772529    -0.26100
C1085       C  0.42310992  0.99090211  0.64395879    -0.15300
C1086       C  0.41685361  0.94531403  0.61217505     0.37000
N1087       N  0.43537440  0.89699157  0.61565764    -0.89500
H1088       H  0.39143751  0.91307846  0.54664109     0.18200
H1089       H  0.40576505  0.06961358  0.66431172     0.18100
N1090       N  0.35721771  0.08297276  0.59417624    -0.88600
H1091       H  0.43189473  0.88042020  0.65350524     0.35500
H1092       H  0.46026530  0.90507550  0.60847739     0.40600
H1093       H  0.36317876  0.11131224  0.62333378     0.40200
H1094       H  0.33339377  0.07010354  0.60322423     0.35100
C1095       C  0.44102953  0.99026093  0.91834281    -0.26600
C1096       C  0.42905773  0.97915934  0.86778457    -0.14700
C1097       C  0.39518877  0.96929177  0.86089277     0.36000
C1098       C  0.37398063  0.97234436  0.90554537    -0.26100
C1099       C  0.38556699  0.98288682  0.95786898    -0.15300
C1100       C  0.42033240  0.99320390  0.96297436     0.37000
N1101       N  0.43530926  0.01099240  0.01165756    -0.89500
H1102       H  0.46700937  0.99904257  0.92311730     0.18200
H1103       H  0.34786545  0.96660075  0.89931232     0.18100
N1104       N  0.38136871  0.95689754  0.80951915    -0.88600
H1105       H  0.44648926  0.04789229  0.00518055     0.35500
H1106       H  0.45282162  0.98687189  0.52293934     0.40600
H1107       H  0.39940340  0.95541145  0.77952246     0.40200
H1108       H  0.36536657  0.98774386  0.79966948     0.35100
C1109       C  0.61225491  0.02947449  0.90935394    -0.26600
C1110       C  0.61238171  0.99079827  0.95096563    -0.14700
C1111       C  0.58725151  0.95069307  0.94768903     0.36000
C1112       C  0.56608753  0.94868660  0.90339711    -0.26100
C1113       C  0.56676175  0.98786947  0.86375960    -0.15300
C1114       C  0.59032963  0.02812838  0.86681204     0.37000
N1115       N  0.59203504  0.06858985  0.82675060    -0.89500
H1116       H  0.62762278  0.06436843  0.91018394     0.18200
H1117       H  0.54711955  0.91836634  0.90221711     0.18100
N1118       N  0.57965773  0.91481199  0.99040420    -0.88600
H1119       H  0.61561393  0.06786696  0.80963531     0.35500
H1120       H  0.58873829  0.10550957  0.84557268     0.40600
H1121       H  0.60041349  0.89450512  0.00297267     0.40200
H1122       H  0.56923061  0.93601331  0.02231146     0.35100
C1123       C  0.61598308  0.96925163  0.59202711    -0.26600
C1124       C  0.61465998  0.00689067  0.54958722    -0.14700
C1125       C  0.58824122  0.04486510  0.55362048     0.36000
C1126       C  0.56594271  0.04368181  0.59732389    -0.26100
C1127       C  0.56712171  0.00397606  0.63640719    -0.15300
C1128       C  0.59317601  0.96734128  0.63397213     0.37000
N1129       N  0.59731592  0.92680844  0.67342061    -0.89500
H1130       H  0.63301641  0.93660707  0.59199047     0.18200
H1131       H  0.54583915  0.07196290  0.59841845     0.18100
N1132       N  0.58039271  0.08147787  0.51198192    -0.88600
H1133       H  0.57785435  0.89976546  0.67101685     0.35500
H1134       H  0.59754515  0.94456042  0.71139076     0.40600
H1135       H  0.60007365  0.10276485  0.00177559     0.40200
H1136       H  0.56979879  0.06091322  0.48017258     0.35100
loop_ 
_geom_bond_atom_site_label_1 
_geom_bond_atom_site_label_2 
_geom_bond_distance 
_geom_bond_site_symmetry_2 
_ccdc_geom_bond_type 
O1           Ni9   1.924       .  S
O1           C11   1.282   1_545  A
O2           Ni9   1.926       .  S
O2           C12   1.286   1_545  A
O3           Ni9   1.924       .  S
O3           C13   1.280       .  A
O4           Ni9   1.910       .  S
O4           C14   1.280   1_545  A
O5          Ni10   1.912       .  S
O5           C14   1.278       .  A
O6          Ni10   1.921       .  S
O6           C13   1.283   1_565  A
O7          Ni10   1.915       .  S
O7           C12   1.278       .  A
O8          Ni10   1.899       .  S
O8           C11   1.278       .  A
Ni9         Ni10   2.386   1_545  S
C11         C517   1.488       .  S
C12         C545   1.483       .  S
C13         C559   1.489       .  S
C14         C528   1.460       .  S
C15         C489   1.577       .  S
C15         C514   1.557       .  S
C15        C1068   1.576   1_564  S
C15        C1099   1.569   1_554  S
C16         C475   1.573       .  S
C16         C556   1.590   1_565  S
C16        C1026   1.569   1_564  S
C16        C1110   1.583   1_554  S
O17         Ni25   1.930       .  S
O17          C27   1.282       .  A
O18         Ni25   1.914       .  S
O18          C28   1.281       .  A
O19         Ni25   1.915       .  S
O19          C29   1.279       .  A
O20         Ni25   1.916       .  S
O20          C30   1.283       .  A
O21         Ni26   1.915       .  S
O21          C30   1.279       .  A
O22         Ni26   1.897       .  S
O22          C29   1.280       .  A
O23         Ni26   1.907       .  S
O23          C28   1.277       .  A
O24         Ni26   1.917       .  S
O24          C27   1.283       .  A
Ni25        Ni26   2.388       .  S
C27         C447   1.490       .  S
C28         C402   1.460       .  S
C29         C419   1.480       .  S
C30         C430   1.478       .  S
C31         C388   1.576       .  S
C31         C416   1.551       .  S
C31         C945   1.576   1_554  S
C31         C973   1.569   1_554  S
C32         C346   1.577       .  S
C32         C444   1.586       .  S
C32         C931   1.573   1_554  S
C32        C1001   1.573   1_554  S
O33         Ni41   1.934   1_455  S
O33          C43   1.285       .  A
O34        Ni609   1.923   1_554  S
O34          C44   1.281       .  A
O35         Ni41   1.891       .  S
O35          C45   1.277       .  A
O36        Ni609   1.907   1_454  S
O36          C46   1.277       .  A
O37        Ni610   1.933       .  S
O37          C46   1.286       .  A
O38         Ni42   1.935   1_655  S
O38          C45   1.284       .  A
O39        Ni610   1.907   1_655  S
O39          C44   1.279       .  A
O40         Ni42   1.908       .  S
O40          C43   1.277       .  A
Ni41        O602   1.929       .  S
Ni41        O604   1.911   1_655  S
Ni41        Ni42   2.388   1_655  S
Ni42        O605   1.936       .  S
Ni42        O607   1.910   1_455  S
C43         C307   1.472       .  S
C44         C332   1.467       .  S
C45         C318   1.486       .  S
C46         C290   1.477       .  S
C47         C265   1.561       .  S
C47         C279   1.575       .  S
C47         C293   1.569       .  S
C47         C304   1.576       .  S
C48         C234   1.565       .  S
C48         C248   1.571       .  S
C48         C321   1.570       .  S
C48         C335   1.577       .  S
O49         Ni57   1.928   1_454  S
O49          C59   1.281       .  A
O50        Ni625   1.920       .  S
O50          C60   1.283   1_545  A
O51         Ni57   1.916   1_554  S
O51          C61   1.279       .  A
O52        Ni625   1.922   1_455  S
O52          C62   1.282   1_545  A
O53        Ni626   1.921       .  S
O53          C62   1.280       .  A
O54         Ni58   1.917   1_655  S
O54          C61   1.282   1_565  A
O55        Ni626   1.928   1_655  S
O55          C60   1.282       .  A
O56         Ni58   1.922       .  S
O56          C59   1.282   1_565  A
Ni57        O618   1.922       .  S
Ni57        O620   1.920   1_655  S
Ni57        Ni58   2.390   1_646  S
Ni58        O621   1.919   1_554  S
Ni58        O623   1.925   1_454  S
C59         C178   1.477       .  S
C60         C209   1.483       .  S
C61         C220   1.472       .  S
C62         C192   1.475       .  S
C63         C150   1.568   1_545  S
C63         C164   1.569       .  S
C63         C181   1.578       .  S
C63         C195   1.576       .  S
C64         C122   1.575       .  S
C64         C136   1.579   1_565  S
C64         C206   1.573       .  S
C64         C223   1.573   1_565  S
O65         Ni73   1.930       .  S
O65          C75   1.286       .  A
O66         Ni73   1.927       .  S
O66          C76   1.282       .  A
O67         Ni73   1.924       .  S
O67          C77   1.281       .  A
O68         Ni73   1.922       .  S
O68          C78   1.282       .  A
O69         Ni74   1.921       .  S
O69          C78   1.280       .  A
O70         Ni74   1.918       .  S
O70          C77   1.282       .  A
O71         Ni74   1.919       .  S
O71          C76   1.282       .  A
O72         Ni74   1.918       .  S
O72          C75   1.280       .  A
Ni73        Ni74   2.389       .  S
C75         C139   1.491       .  S
C76         C360   1.480       .  S
C77         C461   1.475       .  S
C78         C237   1.475       .  S
O79         Ni87   1.917       .  S
O79          C89   1.281       .  A
O80         Ni87   1.919       .  S
O80          C90   1.281       .  A
O81         Ni87   1.924       .  S
O81          C91   1.281       .  A
O82         Ni87   1.922       .  S
O82          C92   1.283       .  A
O83         Ni88   1.925       .  S
O83          C92   1.280       .  A
O84         Ni88   1.914       .  S
O84          C91   1.284       .  A
O85         Ni88   1.927       .  S
O85          C90   1.283       .  A
O86         Ni88   1.927       .  S
O86          C89   1.281       .  A
Ni87        Ni88   2.387       .  S
C89         C472   1.475       .  S
C90         C251   1.482       .  S
C91         C125   1.494       .  S
C92         C349   1.478       .  S
O93        Ni101   1.925       .  S
O93         C103   1.281       .  A
O94        Ni101   1.923       .  S
O94         C104   1.281       .  A
O95        Ni101   1.943       .  S
O95         C105   1.286       .  A
O96        Ni101   1.935       .  S
O96         C106   1.284       .  A
O97        Ni102   1.910       .  S
O97         C106   1.279       .  A
O98        Ni102   1.903       .  S
O98         C105   1.279       .  A
O99        Ni102   1.919       .  S
O99         C104   1.282       .  A
O100       Ni102   1.919       .  S
O100        C103   1.282       .  A
Ni101      Ni102   2.387       .  S
C103        C374   1.478       .  S
C104        C167   1.479       .  S
C105        C276   1.496       .  S
C106        C503   1.478       .  S
O107       Ni115   1.927       .  S
O107        C117   1.286       .  A
O108       Ni115   1.930       .  S
O108        C118   1.283       .  A
O109       Ni115   1.911       .  S
O109        C119   1.277       .  A
O110       Ni115   1.904       .  S
O110        C120   1.279       .  A
O111       Ni116   1.937       .  S
O111        C120   1.286       .  A
O112       Ni116   1.933       .  S
O112        C119   1.285       .  A
O113       Ni116   1.910       .  S
O113        C118   1.279       .  A
O114       Ni116   1.912       .  S
O114        C117   1.277       .  A
Ni115      Ni116   2.388       .  S
C117        C262   1.480       .  S
C118        C486   1.473       .  S
C119        C391   1.474       .  S
C120        C153   1.495       .  S
C121        C122   1.416       .  A
C121        C126   1.416       .  A
C121        H128   1.082       .  S
C122        C123   1.431       .  A
C123        C124   1.395       .  A
C123        N130   1.433       .  S
C124        C125   1.397       .  A
C124        H129   1.084       .  S
C125        C126   1.416       .  A
C126        N127   1.437       .  S
N127        H131   1.046       .  S
N127        H132   1.046       .  S
N130        H133   1.046       .  S
N130        H134   1.046       .  S
C135        C136   1.419       .  A
C135        C140   1.403       .  A
C135        H142   1.078       .  S
C136        C137   1.442       .  A
C137        C138   1.403       .  A
C137        N144   1.439       .  S
C138        C139   1.396       .  A
C138        H143   1.084       .  S
C139        C140   1.413       .  A
C140        N141   1.432       .  S
N141        H145   1.045       .  S
N141        H146   1.045       .  S
N144        H147   1.033       .  S
N144        H148   1.045       .  S
C149        C150   1.413       .  A
C149        C154   1.396       .  A
C149        H156   1.078       .  S
C150        C151   1.424       .  A
C151        C152   1.413       .  A
C151        N158   1.433       .  S
C152        C153   1.406       .  A
C152        H157   1.083       .  S
C153        C154   1.413       .  A
C154        N155   1.433       .  S
N155        H159   1.046       .  S
N155        H160   1.045       .  S
N158        H161   1.045       .  S
N158        H162   1.045       .  S
C163        C164   1.417       .  A
C163        C168   1.400       .  A
C163        H170   1.083       .  S
C164        C165   1.430       .  A
C165        C166   1.410       .  A
C165        N172   1.432       .  S
C166        C167   1.400       .  A
C166        H171   1.084       .  S
C167        C168   1.403       .  A
C168        N169   1.433       .  S
N169        H173   1.046       .  S
N169        H174   1.046       .  S
N172        H175   1.045   1_545  S
N172        H176   1.046       .  S
C177        C178   1.397       .  A
C177        C182   1.403       .  A
C177        H184   1.083       .  S
C178        C179   1.404       .  A
C179        C180   1.408       .  A
C179        N186   1.436       .  S
C180        C181   1.418       .  A
C180        H185   1.081       .  S
C181        C182   1.434       .  A
C182        N183   1.432       .  S
N183        H187   1.040       .  S
N183        H188   1.044       .  S
N186        H189   1.046       .  S
N186        H190   1.045       .  S
C191        C192   1.399       .  A
C191        C196   1.407       .  A
C191        H198   1.084       .  S
C192        C193   1.411   1_565  A
C193        C194   1.399       .  A
C193        N200   1.439       .  S
C194        C195   1.418       .  A
C194        H199   1.080       .  S
C195        C196   1.426   1_545  A
C196        N197   1.432       .  S
N197        H201   1.046       .  S
N197        H202   1.045       .  S
N200        H203   1.042       .  S
N200        H204   1.046       .  S
C205        C206   1.413       .  A
C205        C210   1.410       .  A
C205        H212   1.081       .  S
C206        C207   1.423       .  A
C207        C208   1.402       .  A
C207        N214   1.433   1_565  S
C208        C209   1.399       .  A
C208        H213   1.084   1_565  S
C209        C210   1.419       .  A
C210        N211   1.438       .  S
N211        H215   1.046       .  S
N211        H216   1.041       .  S
N214        H217   1.045       .  S
N214        H218   1.045   1_545  S
C219        C220   1.397       .  A
C219        C224   1.406       .  A
C219        H226   1.084       .  S
C220        C221   1.405   1_545  A
C221        C222   1.402       .  A
C221        N228   1.438       .  S
C222        C223   1.418   1_565  A
C222        H227   1.073       .  S
C223        C224   1.428       .  A
C224        N225   1.431       .  S
N225        H229   1.045       .  S
N225        H230   1.046       .  S
N228        H231   1.045       .  S
N228        H232   1.045       .  S
C233        C234   1.416       .  A
C233        C238   1.410       .  A
C233        H240   1.078       .  S
C234        C235   1.427       .  A
C235        C236   1.395       .  A
C235        N242   1.434       .  S
C236        C237   1.393       .  A
C236        H241   1.084       .  S
C237        C238   1.415       .  A
C238        N239   1.438       .  S
N239        H243   1.046       .  S
N239        H244   1.044       .  S
N242        H245   1.046       .  S
N242        H246   1.045       .  S
C247        C248   1.418       .  A
C247        C252   1.409       .  A
C247        H254   1.083       .  S
C248        C249   1.436       .  A
C249        C250   1.399       .  A
C249        N256   1.433       .  S
C250        C251   1.391       .  A
C250        H255   1.081       .  S
C251        C252   1.414       .  A
C252        N253   1.439       .  S
N253        H257   1.046       .  S
N253        H258   1.043       .  S
N256        H259   1.046       .  S
N256        H260   1.046       .  S
C261        C262   1.396       .  A
C261        C266   1.400       .  A
C261        H268   1.084       .  S
C262        C263   1.412       .  A
C263        C264   1.411       .  A
C263        N270   1.438       .  S
C264        C265   1.412       .  A
C264        H269   1.079       .  S
C265        C266   1.426       .  A
C266        N267   1.432       .  S
N267        H271   1.046       .  S
N267        H272   1.045       .  S
N270        H273   1.043       .  S
N270        H274   1.045       .  S
C275        C276   1.406       .  A
C275        C280   1.416       .  A
C275        H282   1.083       .  S
C276        C277   1.411       .  A
C277        C278   1.397       .  A
C277        N284   1.434       .  S
C278        C279   1.415       .  A
C278        H283   1.081       .  S
C279        C280   1.424       .  A
C280        N281   1.430       .  S
N281        H285   1.046       .  S
N281        H286   1.045       .  S
N284        H287   1.046       .  S
N284        H288   1.046       .  S
C289        C290   1.395       .  A
C289        C294   1.401       .  A
C289        H296   1.084       .  S
C290        C291   1.411       .  A
C291        C292   1.410       .  A
C291        N298   1.437       .  S
C292        C293   1.414       .  A
C292        H297   1.083       .  S
C293        C294   1.428       .  A
C294        N295   1.433       .  S
N295        H299   1.045       .  S
N295        H300   1.046       .  S
N298        H301   1.045       .  S
N298        H302   1.046       .  S
C303        C304   1.417       .  A
C303        C308   1.405       .  A
C303        H310   1.078       .  S
C304        C305   1.427       .  A
C305        C306   1.407       .  A
C305        N312   1.433       .  S
C306        C307   1.397       .  A
C306        H311   1.084       .  S
C307        C308   1.403       .  A
C308        N309   1.438       .  S
N309        H313   1.044       .  S
N309        H314   1.045       .  S
N312        H315   1.046       .  S
N312        H316   1.045       .  S
C317        C318   1.409       .  A
C317        C322   1.417       .  A
C317        H324   1.083       .  S
C318        C319   1.410       .  A
C319        C320   1.386       .  A
C319        N326   1.441       .  S
C320        C321   1.417       .  A
C320        H325   1.083       .  S
C321        C322   1.422       .  A
C322        N323   1.429       .  S
N323        H327   1.046       .  S
N323        H328   1.046       .  S
N326        H329   1.046       .  S
N326        H330   1.046       .  S
C331        C332   1.403       .  A
C331        C336   1.415       .  A
C331        H338   1.084       .  S
C332        C333   1.392       .  A
C333        C334   1.388       .  A
C333        N340   1.434       .  S
C334        C335   1.425       .  A
C334        H339   1.080       .  S
C335        C336   1.423       .  A
C336        N337   1.431       .  S
N337        H341   1.045       .  S
N337        H342   1.045       .  S
N340        H343   1.044       .  S
N340        H344   1.046       .  S
C345        C346   1.417       .  A
C345        C350   1.390       .  A
C345        H352   1.077       .  S
C346        C347   1.428   1_554  A
C347        C348   1.416       .  A
C347        N354   1.431       .  S
C348        C349   1.402   1_556  A
C348        H353   1.084       .  S
C349        C350   1.403       .  A
C350        N351   1.431       .  S
N351        H355   1.045       .  S
N351        H356   1.045       .  S
N354        H357   1.045       .  S
N354        H358   1.045       .  S
C359        C360   1.405       .  A
C359        C364   1.413       .  A
C359        H366   1.084       .  S
C360        C361   1.409       .  A
C361        C362   1.392       .  A
C361        N368   1.441       .  S
C362        C363   1.421       .  A
C362        H367   1.083       .  S
C363        C600   1.576       .  S
C363        C364   1.435       .  A
C364        N365   1.434       .  S
N365        H369   1.038       .  S
N365        H370   1.042       .  S
N368        H371   1.041       .  S
N368        H372   1.045       .  S
C373        C374   1.401       .  A
C373        C378   1.411       .  A
C373        H380   1.084       .  S
C374        C375   1.410       .  A
C375        C376   1.397       .  A
C375        N382   1.442       .  S
C376        C377   1.423       .  A
C376        H381   1.078       .  S
C377        C599   1.578       .  S
C377        C378   1.426       .  A
C378        N947   1.431       .  S
N379        C946   1.430       .  S
N379        H383   1.045   1_556  S
N379        H384   1.046       .  S
N382        H385   1.042       .  S
N382        H386   1.046       .  S
C387        C388   1.419       .  A
C387        C392   1.395       .  A
C387        H394   1.084       .  S
C388        C389   1.429       .  A
C389        C390   1.411       .  A
C389        N396   1.430   1_554  S
C390        C391   1.400       .  A
C390        H395   1.084       .  S
C391        C392   1.408       .  A
C392        N393   1.439       .  S
N393        H397   1.047       .  S
N393        H398   1.041       .  S
N396        H400   1.046       .  S
N396        H967   1.046       .  S
H399        N964   1.046       .  S
C401        C402   1.384       .  A
C401        C406   1.391       .  A
C401        H408   1.086       .  S
C402        C403   1.410       .  A
C403        C404   1.405       .  A
C403        N410   1.438       .  S
C404        C405   1.417       .  A
C404        H409   1.084       .  S
C405        C599   1.569       .  S
C405        C406   1.443       .  A
C406        N407   1.433       .  S
N407        H411   1.046       .  S
N407        H980   1.046       .  S
N410        H413   1.043       .  S
N410        H414   1.046       .  S
H412        N975   1.046       .  S
C415        C416   1.415       .  A
C415        C420   1.382       .  A
C415        H422   1.079       .  S
C416        C417   1.418       .  A
C417        C418   1.414       .  A
C417        N424   1.431       .  S
C418        C419   1.411       .  A
C418        H423   1.083       .  S
C419        C420   1.405       .  A
C420        N421   1.434       .  S
N421        H425   1.046       .  S
N421        H426   1.046       .  S
N424        H427   1.045       .  S
N424        H428   1.045       .  S
C429        C430   1.403       .  A
C429        C434   1.411       .  A
C429        H436   1.084       .  S
C430        C431   1.399       .  A
C431        C432   1.393       .  A
C431        N438   1.434       .  S
C432        C433   1.423       .  A
C432        H437   1.077       .  S
C433        C600   1.574       .  S
C433        C434   1.426       .  A
C434        N435   1.433       .  S
N435        H439   1.045       .  S
N435       H1008   1.046       .  S
N438        H441   1.046       .  S
N438        H442   1.046       .  S
H440       N1003   1.045   1_554  S
C443        C444   1.425       .  A
C443        C448   1.400       .  A
C443        H450   1.075       .  S
C444        C445   1.438       .  A
C445        C446   1.411       .  A
C445        N452   1.434       .  S
C446        C447   1.403       .  A
C446        H451   1.084       .  S
C447        C448   1.404       .  A
C448        N449   1.440       .  S
N449        H453   1.045       .  S
N449        H454   1.046       .  S
N452        H456   1.042   1_554  S
N452       H1023   1.042       .  S
H455       N1020   1.042       .  S
C457        C458   1.415       .  A
C457        C462   1.414       .  A
C457        H464   1.081       .  S
C458        C584   1.572   1_545  S
C458        C459   1.432       .  A
C459        C460   1.394       .  A
C459        N466   1.434   1_545  S
C460        C461   1.390       .  A
C460        H465   1.085       .  S
C461        C462   1.418       .  A
C462        N463   1.438       .  S
N463        H467   1.046       .  S
N463        H468   1.043       .  S
N466       H1037   1.046       .  S
N466       H1038   1.046   1_565  S
H469       N1034   1.046       .  S
H470       N1034   1.046   1_545  S
C471        C472   1.392       .  A
C471        C476   1.394       .  A
C471        H478   1.085       .  S
C472        C473   1.415   1_554  A
C473        C474   1.412       .  A
C473       N1048   1.437       .  S
C474        C475   1.416   1_556  A
C474       H1047   1.081       .  S
C475        C476   1.431       .  A
C476        N477   1.434   1_565  S
N477        H481   1.046       .  S
N477        H482   1.046   1_545  S
H479       C1042   1.081       .  S
N480       C1041   1.437       .  S
N480        H484   1.046       .  S
N480       H1051   1.043       .  S
H483       N1048   1.044       .  S
C485        C486   1.400       .  A
C485        C490   1.411   1_554  A
C485        H492   1.084   1_554  S
C486        C487   1.409       .  A
C487        C488   1.395       .  A
C487        N494   1.441       .  S
C488        C489   1.419       .  A
C488        H493   1.082       .  S
C489        C490   1.428   1_554  A
C490       N1059   1.430       .  S
N491       C1058   1.430       .  S
N491        H495   1.046       .  S
N491        H496   1.046       .  S
N494        H497   1.042       .  S
N494        H498   1.046       .  S
C499        C500   1.422       .  A
C499        C504   1.397       .  A
C499        H506   1.078       .  S
C500        C583   1.577   1_545  S
C500        C501   1.427       .  A
C501        C502   1.411       .  A
C501        N508   1.430       .  S
C502        C503   1.399       .  A
C502        H507   1.084       .  S
C503        C504   1.411       .  A
C504        N505   1.442       .  S
N505        H509   1.046       .  S
N505        H510   1.041       .  S
N508        H512   1.046       .  S
N508       H1079   1.045       .  S
H511       N1076   1.046   1_554  S
C513        C514   1.415       .  A
C513        C518   1.382       .  A
C513        H520   1.080       .  S
C514        C515   1.421   1_565  A
C515        C516   1.417       .  A
C515        N522   1.435       .  S
C516        C517   1.411   1_545  A
C516        H521   1.083       .  S
C517        C518   1.414       .  A
C518        N519   1.434       .  S
N519        H523   1.045       .  S
N519        H524   1.045       .  S
N522        H525   1.046       .  S
N522        H526   1.044       .  S
C527        C528   1.384       .  A
C527        C532   1.391       .  A
C527        H534   1.086       .  S
C528        C529   1.410       .  A
C529        C530   1.405       .  A
C529        N536   1.438       .  S
C530        C531   1.417       .  A
C530        H535   1.083       .  S
C531        C583   1.569       .  S
C531        C532   1.443       .  A
C532        N533   1.434   1_565  S
N533        H537   1.046       .  S
N533       H1106   1.046   1_545  S
N536        H539   1.044       .  S
N536        H540   1.046       .  S
H538       N1101   1.046   1_565  S
C541        C542   1.429   1_545  A
C541        C546   1.395       .  A
C541        H548   1.076       .  S
C542        C584   1.585       .  S
C542        C543   1.438       .  A
C543        C544   1.410       .  A
C543        N550   1.434       .  S
C544        C545   1.403       .  A
C544        H549   1.084       .  S
C545        C546   1.396   1_565  A
C546        N547   1.434       .  S
N547        H551   1.046       .  S
N547        H552   1.046       .  S
N550        H553   1.039       .  S
N550        H554   1.042       .  S
C555        C556   1.427   1_565  A
C555        C560   1.391       .  A
C555        H562   1.074       .  S
C556        C557   1.441       .  A
C557        C558   1.413       .  A
C557        N564   1.433       .  S
C558        C559   1.404       .  A
C558        H563   1.084       .  S
C559        C560   1.404   1_545  A
C560        N561   1.435       .  S
N561        H565   1.044       .  S
N561        H566   1.046       .  S
N564        H568   1.042   1_554  S
N564       H1135   1.040       .  S
H567       N1132   1.040       .  S
O569       Ni577   1.923       .  S
O569        C579   1.282   1_545  A
O570       Ni577   1.924       .  S
O570        C580   1.285   1_545  A
O571       Ni577   1.926       .  S
O571        C581   1.281   1_545  A
O572       Ni577   1.913       .  S
O572        C582   1.280   1_545  A
O573       Ni578   1.912       .  S
O573        C582   1.278       .  A
O574       Ni578   1.923       .  S
O574        C581   1.283       .  A
O575       Ni578   1.912       .  S
O575        C580   1.278       .  A
O576       Ni578   1.898       .  S
O576        C579   1.278       .  A
Ni577      Ni578   2.386   1_545  S
C579       C1085   1.486       .  S
C580       C1113   1.481       .  S
C581       C1127   1.492   1_565  S
C582       C1096   1.462       .  S
C583       C1057   1.574       .  S
C583       C1082   1.557       .  S
C584       C1043   1.573       .  S
C584       C1124   1.591   1_565  S
O585       Ni593   1.926       .  S
O585        C595   1.281       .  A
O586       Ni593   1.911       .  S
O586        C596   1.280       .  A
O587       Ni593   1.914       .  S
O587        C597   1.280       .  A
O588       Ni593   1.916       .  S
O588        C598   1.283       .  A
O589       Ni594   1.916       .  S
O589        C598   1.280       .  A
O590       Ni594   1.903       .  S
O590        C597   1.280       .  A
O591       Ni594   1.911       .  S
O591        C596   1.278       .  A
O592       Ni594   1.919       .  S
O592        C595   1.284       .  A
Ni593      Ni594   2.388       .  S
C595       C1015   1.490       .  S
C596        C970   1.461       .  S
C597        C987   1.481       .  S
C598        C998   1.480       .  S
C599        C956   1.569       .  S
C599        C984   1.556       .  S
C600        C914   1.575       .  S
C600       C1012   1.586       .  S
O601       Ni609   1.927   1_455  S
O601        C611   1.283       .  A
O602        C612   1.282       .  A
O603       Ni609   1.890       .  S
O603        C613   1.277       .  A
O604        C614   1.277       .  A
O605        C614   1.287       .  A
O606       Ni610   1.935   1_656  S
O606        C613   1.284       .  A
O607        C612   1.280       .  A
O608       Ni610   1.907   1_556  S
O608        C611   1.277       .  A
Ni609      Ni610   2.389   1_656  S
C611        C875   1.467       .  S
C612        C900   1.473       .  S
C613        C886   1.488       .  S
C614        C858   1.481       .  S
C615        C833   1.559       .  S
C615        C847   1.571       .  S
C615        C861   1.571       .  S
C615        C872   1.574       .  S
C616        C802   1.569       .  S
C616        C816   1.573       .  S
C616        C889   1.573       .  S
C616        C903   1.581       .  S
O617       Ni625   1.923   1_455  S
O617        C627   1.280       .  A
O618        C628   1.283   1_545  A
O619       Ni625   1.921       .  S
O619        C629   1.280       .  A
O620        C630   1.282       .  A
O621        C630   1.280   1_565  A
O622       Ni626   1.921   1_655  S
O622        C629   1.282   1_565  A
O623        C628   1.281       .  A
O624       Ni626   1.924       .  S
O624        C627   1.283   1_565  A
Ni625      Ni626   2.390   1_645  S
C627        C746   1.475       .  S
C628        C777   1.481       .  S
C629        C788   1.477       .  S
C630        C760   1.473       .  S
C631        C718   1.564   1_545  S
C631        C732   1.565       .  S
C631        C749   1.575       .  S
C631        C763   1.576       .  S
C632        C690   1.573       .  S
C632        C704   1.583   1_565  S
C632        C774   1.572       .  S
C632        C791   1.575   1_565  S
O633       Ni641   1.928       .  S
O633        C643   1.285       .  A
O634       Ni641   1.923       .  S
O634        C644   1.281       .  A
O635       Ni641   1.921       .  S
O635        C645   1.280       .  A
O636       Ni641   1.919       .  S
O636        C646   1.281       .  A
O637       Ni642   1.921       .  S
O637        C646   1.281       .  A
O638       Ni642   1.914       .  S
O638        C645   1.281       .  A
O639       Ni642   1.917       .  S
O639        C644   1.282       .  A
O640       Ni642   1.921       .  S
O640        C643   1.280       .  A
Ni641      Ni642   2.390       .  S
C643        C707   1.492       .  S
C644        C928   1.475       .  S
C645       C1029   1.471       .  S
C646        C805   1.474       .  S
O647       Ni655   1.918       .  S
O647        C657   1.282       .  A
O648       Ni655   1.919       .  S
O648        C658   1.282       .  A
O649       Ni655   1.919       .  S
O649        C659   1.280       .  A
O650       Ni655   1.919       .  S
O650        C660   1.282       .  A
O651       Ni656   1.923       .  S
O651        C660   1.280       .  A
O652       Ni656   1.915       .  S
O652        C659   1.284       .  A
O653       Ni656   1.926       .  S
O653        C658   1.283       .  A
O654       Ni656   1.926       .  S
O654        C657   1.281       .  A
Ni655      Ni656   2.388       .  S
C657       C1040   1.475       .  S
C658        C819   1.483       .  S
C659        C693   1.492       .  S
C660        C917   1.474       .  S
O661       Ni669   1.920       .  S
O661        C671   1.281       .  A
O662       Ni669   1.919       .  S
O662        C672   1.280       .  A
O663       Ni669   1.939       .  S
O663        C673   1.286       .  A
O664       Ni669   1.929       .  S
O664        C674   1.283       .  A
O665       Ni670   1.906       .  S
O665        C674   1.278       .  A
O666       Ni670   1.901       .  S
O666        C673   1.279       .  A
O667       Ni670   1.917       .  S
O667        C672   1.282       .  A
O668       Ni670   1.916       .  S
O668        C671   1.281       .  A
Ni669      Ni670   2.389       .  S
C671        C942   1.473       .  S
C672        C735   1.474       .  S
C673        C844   1.492       .  S
C674       C1071   1.473       .  S
O675       Ni683   1.925       .  S
O675        C685   1.285       .  A
O676       Ni683   1.927       .  S
O676        C686   1.282       .  A
O677       Ni683   1.902       .  S
O677        C687   1.275       .  A
O678       Ni683   1.897       .  S
O678        C688   1.277       .  A
O679       Ni684   1.934       .  S
O679        C688   1.285       .  A
O680       Ni684   1.928       .  S
O680        C687   1.284       .  A
O681       Ni684   1.908       .  S
O681        C686   1.279       .  A
O682       Ni684   1.910       .  S
O682        C685   1.277       .  A
Ni683      Ni684   2.389       .  S
C685        C830   1.479       .  S
C686       C1054   1.470       .  S
C687        C959   1.465       .  S
C688        C721   1.492       .  S
C689        C690   1.415       .  A
C689        C694   1.414       .  A
C689        H696   1.082       .  S
C690        C691   1.431       .  A
C691        C692   1.395       .  A
C691        N698   1.433       .  S
C692        C693   1.397       .  A
C692        H697   1.084       .  S
C693        C694   1.416       .  A
C694        N695   1.437       .  S
N695        H699   1.046       .  S
N695        H700   1.045       .  S
N698        H701   1.046       .  S
N698        H702   1.046       .  S
C703        C704   1.420       .  A
C703        C708   1.405       .  A
C703        H710   1.078       .  S
C704        C705   1.443       .  A
C705        C706   1.403       .  A
C705        N712   1.438       .  S
C706        C707   1.396       .  A
C706        H711   1.084       .  S
C707        C708   1.412       .  A
C708        N709   1.433       .  S
N709        H713   1.045       .  S
N709        H714   1.045       .  S
N712        H715   1.033       .  S
N712        H716   1.045       .  S
C717        C718   1.412       .  A
C717        C722   1.397       .  A
C717        H724   1.078       .  S
C718        C719   1.422       .  A
C719        C720   1.410       .  A
C719        N726   1.433       .  S
C720        C721   1.406       .  A
C720        H725   1.083       .  S
C721        C722   1.415       .  A
C722        N723   1.440       .  S
N723        H727   1.046       .  S
N723        H728   1.046       .  S
N726        H729   1.045       .  S
N726        H730   1.045       .  S
C731        C732   1.416       .  A
C731        C736   1.398       .  A
C731        H738   1.083       .  S
C732        C733   1.430       .  A
C733        C734   1.409       .  A
C733        N740   1.432       .  S
C734        C735   1.399       .  A
C734        H739   1.084       .  S
C735        C736   1.401       .  A
C736        N737   1.433       .  S
N737        H741   1.046       .  S
N737        H742   1.046       .  S
N740        H743   1.045   1_545  S
N740        H744   1.046       .  S
C745        C746   1.398       .  A
C745        C750   1.403       .  A
C745        H752   1.082       .  S
C746        C747   1.403       .  A
C747        C748   1.405       .  A
C747        N754   1.436       .  S
C748        C749   1.416       .  A
C748        H753   1.081       .  S
C749        C750   1.432       .  A
C750        N751   1.432       .  S
N751        H755   1.040       .  S
N751        H756   1.044       .  S
N754        H757   1.046       .  S
N754        H758   1.045       .  S
C759        C760   1.399   1_565  A
C759        C764   1.407       .  A
C759        H766   1.084       .  S
C760        C761   1.410       .  A
C761        C762   1.398       .  A
C761        N768   1.439       .  S
C762        C763   1.418       .  A
C762        H767   1.080       .  S
C763        C764   1.427   1_545  A
C764        N765   1.432       .  S
N765        H769   1.045       .  S
N765        H770   1.045       .  S
N768        H771   1.042       .  S
N768        H772   1.046       .  S
C773        C774   1.413       .  A
C773        C778   1.408       .  A
C773        H780   1.079       .  S
C774        C775   1.422       .  A
C775        C776   1.402       .  A
C775        N782   1.433   1_565  S
C776        C777   1.399       .  A
C776        H781   1.084   1_565  S
C777        C778   1.419       .  A
C778        N779   1.438       .  S
N779        H783   1.045       .  S
N779        H784   1.041       .  S
N782        H785   1.046       .  S
N782        H786   1.045   1_545  S
C787        C788   1.399       .  A
C787        C792   1.408       .  A
C787        H794   1.084       .  S
C788        C789   1.405       .  A
C789        C790   1.402       .  A
C789        N796   1.438   1_545  S
C790        C791   1.418       .  A
C790        H795   1.074   1_545  S
C791        C792   1.428       .  A
C792        N793   1.431       .  S
N793        H797   1.046       .  S
N793        H798   1.046       .  S
N796        H799   1.045       .  S
N796        H800   1.045       .  S
C801        C802   1.417       .  A
C801        C806   1.408       .  A
C801        H808   1.077       .  S
C802        C803   1.428       .  A
C803        C804   1.396       .  A
C803        N810   1.433       .  S
C804        C805   1.393       .  A
C804        H809   1.084       .  S
C805        C806   1.413       .  A
C806        N807   1.438       .  S
N807        H811   1.045       .  S
N807        H812   1.044       .  S
N810        H813   1.046       .  S
N810        H814   1.045       .  S
C815        C816   1.419       .  A
C815        C820   1.408       .  A
C815        H822   1.083       .  S
C816        C817   1.436       .  A
C817        C818   1.400       .  A
C817        N824   1.432       .  S
C818        C819   1.392       .  A
C818        H823   1.082       .  S
C819        C820   1.414       .  A
C820        N821   1.439       .  S
N821        H825   1.046       .  S
N821        H826   1.043       .  S
N824        H827   1.046       .  S
N824        H828   1.046       .  S
C829        C830   1.396       .  A
C829        C834   1.399       .  A
C829        H836   1.084       .  S
C830        C831   1.413       .  A
C831        C832   1.410       .  A
C831        N838   1.438       .  S
C832        C833   1.412       .  A
C832        H837   1.080       .  S
C833        C834   1.425       .  A
C834        N835   1.433       .  S
N835        H839   1.046       .  S
N835        H840   1.045       .  S
N838        H841   1.043       .  S
N838        H842   1.046       .  S
C843        C844   1.405       .  A
C843        C848   1.414       .  A
C843        H850   1.083       .  S
C844        C845   1.410       .  A
C845        C846   1.396       .  A
C845        N852   1.434       .  S
C846        C847   1.415       .  A
C846        H851   1.081       .  S
C847        C848   1.425       .  A
C848        N849   1.431       .  S
N849        H853   1.046       .  S
N849        H854   1.045       .  S
N852        H855   1.046       .  S
N852        H856   1.046       .  S
C857        C858   1.397       .  A
C857        C862   1.403       .  A
C857        H864   1.084       .  S
C858        C859   1.411       .  A
C859        C860   1.412       .  A
C859        N866   1.437       .  S
C860        C861   1.414       .  A
C860        H865   1.082       .  S
C861        C862   1.427       .  A
C862        N863   1.433       .  S
N863        H867   1.045       .  S
N863        H868   1.046       .  S
N866        H869   1.045       .  S
N866        H870   1.045       .  S
C871        C872   1.416       .  A
C871        C876   1.403       .  A
C871        H878   1.077       .  S
C872        C873   1.428       .  A
C873        C874   1.405       .  A
C873        N880   1.432       .  S
C874        C875   1.395       .  A
C874        H879   1.084       .  S
C875        C876   1.401       .  A
C876        N877   1.437       .  S
N877        H881   1.043       .  S
N877        H882   1.045       .  S
N880        H883   1.046       .  S
N880        H884   1.045       .  S
C885        C886   1.409       .  A
C885        C890   1.420       .  A
C885        H892   1.083       .  S
C886        C887   1.410       .  A
C887        C888   1.386       .  A
C887        N894   1.441       .  S
C888        C889   1.417       .  A
C888        H893   1.082       .  S
C889        C890   1.427       .  A
C890        N891   1.435       .  S
N891        H895   1.045       .  S
N891        H896   1.043       .  S
N894        H897   1.045       .  S
N894        H898   1.046       .  S
C899        C900   1.406       .  A
C899        C904   1.418       .  A
C899        H906   1.083       .  S
C900        C901   1.391       .  A
C901        C902   1.389       .  A
C901        N908   1.433       .  S
C902        C903   1.425       .  A
C902        H907   1.079       .  S
C903        C904   1.424       .  A
C904        N905   1.432       .  S
N905        H909   1.046       .  S
N905        H910   1.045       .  S
N908        H911   1.042       .  S
N908        H912   1.046       .  S
C913        C914   1.418       .  A
C913        C918   1.389       .  A
C913        H920   1.077       .  S
C914        C915   1.427       .  A
C915        C916   1.414       .  A
C915        N922   1.431       .  S
C916        C917   1.402       .  A
C916        H921   1.084       .  S
C917        C918   1.403       .  A
C918        N919   1.432       .  S
N919        H923   1.045       .  S
N919        H924   1.045       .  S
N922        H925   1.045       .  S
N922        H926   1.045       .  S
C927        C928   1.404   1_554  A
C927        C932   1.412       .  A
C927        H934   1.084       .  S
C928        C929   1.408       .  A
C929        C930   1.388       .  A
C929        N936   1.440       .  S
C930        C931   1.419       .  A
C930        H935   1.083       .  S
C931        C932   1.435   1_556  A
C932        N933   1.434       .  S
N933        H937   1.039       .  S
N933        H938   1.041       .  S
N936        H939   1.041       .  S
N936        H940   1.045       .  S
C941        C942   1.398       .  A
C941        C946   1.409       .  A
C941        H948   1.084       .  S
C942        C943   1.409       .  A
C943        C944   1.397       .  A
C943        N950   1.442       .  S
C944        C945   1.422       .  A
C944        H949   1.078       .  S
C945        C946   1.428       .  A
N947        H951   1.045       .  S
N947        H952   1.046       .  S
N950        H953   1.042       .  S
N950        H954   1.046       .  S
C955        C956   1.418       .  A
C955        C960   1.391       .  A
C955        H962   1.081       .  S
C956        C957   1.427       .  A
C957        C958   1.408       .  A
C957        N964   1.430       .  S
C958        C959   1.399       .  A
C958        H963   1.084       .  S
C959        C960   1.406       .  A
C960        N961   1.439       .  S
N961        H965   1.046       .  S
N961        H966   1.042       .  S
N964        H968   1.046       .  S
C969        C970   1.385       .  A
C969        C974   1.392       .  A
C969        H976   1.086       .  S
C970        C971   1.410       .  A
C971        C972   1.404       .  A
C971        N978   1.438       .  S
C972        C973   1.415       .  A
C972        H977   1.084       .  S
C973        C974   1.444       .  A
C974        N975   1.435   1_556  S
N975        H979   1.046       .  S
N978        H981   1.044       .  S
N978        H982   1.046       .  S
C983        C984   1.419       .  A
C983        C988   1.386       .  A
C983        H990   1.080       .  S
C984        C985   1.420       .  A
C985        C986   1.414       .  A
C985        N992   1.435       .  S
C986        C987   1.410       .  A
C986        H991   1.083       .  S
C987        C988   1.404       .  A
C988        N989   1.434       .  S
N989        H993   1.046       .  S
N989        H994   1.046       .  S
N992        H995   1.044       .  S
N992        H996   1.045       .  S
C997        C998   1.404       .  A
C997       C1002   1.410       .  A
C997       H1004   1.084       .  S
C998        C999   1.400       .  A
C999       C1000   1.394       .  A
C999       N1006   1.434       .  S
C1000      C1001   1.424       .  A
C1000      H1005   1.078       .  S
C1001      C1002   1.424       .  A
C1002      N1003   1.432       .  S
N1003      H1007   1.045       .  S
N1006      H1009   1.046       .  S
N1006      H1010   1.046       .  S
C1011      C1012   1.426       .  A
C1011      C1016   1.399       .  A
C1011      H1018   1.074       .  S
C1012      C1013   1.438       .  A
C1013      C1014   1.411       .  A
C1013      N1020   1.434       .  S
C1014      C1015   1.403       .  A
C1014      H1019   1.084       .  S
C1015      C1016   1.403       .  A
C1016      N1017   1.440       .  S
N1017      H1021   1.045       .  S
N1017      H1022   1.046       .  S
N1020      H1024   1.043       .  S
C1025      C1026   1.414   1_554  A
C1025      C1030   1.412       .  A
C1025      H1032   1.081       .  S
C1026      C1027   1.433       .  A
C1027      C1028   1.391       .  A
C1027      N1034   1.434   1_545  S
C1028      C1029   1.389       .  A
C1028      H1033   1.085       .  S
C1029      C1030   1.417   1_556  A
C1030      N1031   1.438       .  S
N1031      H1035   1.045       .  S
N1031      H1036   1.044       .  S
C1039      C1040   1.392       .  A
C1039      C1044   1.395       .  A
C1039      H1046   1.085       .  S
C1040      C1041   1.415       .  A
C1041      C1042   1.412       .  A
C1042      C1043   1.416       .  A
C1043      C1044   1.431       .  A
C1044      N1045   1.434   1_565  S
N1045      H1049   1.046       .  S
N1045      H1050   1.046   1_545  S
N1048      H1052   1.045       .  S
C1053      C1054   1.400       .  A
C1053      C1058   1.411       .  A
C1053      H1060   1.084       .  S
C1054      C1055   1.408       .  A
C1055      C1056   1.393       .  A
C1055      N1062   1.441       .  S
C1056      C1057   1.418       .  A
C1056      H1061   1.080       .  S
C1057      C1058   1.428       .  A
N1059      H1063   1.046       .  S
N1059      H1064   1.046       .  S
N1062      H1065   1.043       .  S
N1062      H1066   1.045       .  S
C1067      C1068   1.421       .  A
C1067      C1072   1.395       .  A
C1067      H1074   1.078       .  S
C1068      C1069   1.428       .  A
C1069      C1070   1.409       .  A
C1069      N1076   1.430       .  S
C1070      C1071   1.398       .  A
C1070      H1075   1.084       .  S
C1071      C1072   1.410       .  A
C1072      N1073   1.442       .  S
N1073      H1077   1.046       .  S
N1073      H1078   1.041       .  S
N1076      H1080   1.046       .  S
C1081      C1082   1.416       .  A
C1081      C1086   1.383       .  A
C1081      H1088   1.081       .  S
C1082      C1083   1.420   1_565  A
C1083      C1084   1.416       .  A
C1083      N1090   1.436       .  S
C1084      C1085   1.411   1_545  A
C1084      H1089   1.083       .  S
C1085      C1086   1.414       .  A
C1086      N1087   1.434       .  S
N1087      H1091   1.045       .  S
N1087      H1092   1.046       .  S
N1090      H1093   1.045       .  S
N1090      H1094   1.044       .  S
C1095      C1096   1.385       .  A
C1095      C1100   1.392       .  A
C1095      H1102   1.086       .  S
C1096      C1097   1.410       .  A
C1097      C1098   1.405       .  A
C1097      N1104   1.438       .  S
C1098      C1099   1.417       .  A
C1098      H1103   1.084       .  S
C1099      C1100   1.443       .  A
C1100      N1101   1.434   1_566  S
N1101      H1105   1.046       .  S
N1104      H1107   1.044       .  S
N1104      H1108   1.045       .  S
C1109      C1110   1.429   1_545  A
C1109      C1114   1.394       .  A
C1109      H1116   1.077       .  S
C1110      C1111   1.437       .  A
C1111      C1112   1.409       .  A
C1111      N1118   1.434       .  S
C1112      C1113   1.403       .  A
C1112      H1117   1.084       .  S
C1113      C1114   1.395   1_565  A
C1114      N1115   1.434       .  S
N1115      H1119   1.046       .  S
N1115      H1120   1.046       .  S
N1118      H1121   1.039   1_556  S
N1118      H1122   1.043   1_556  S
C1123      C1124   1.428   1_565  A
C1123      C1128   1.394       .  A
C1123      H1130   1.075       .  S
C1124      C1125   1.440       .  A
C1125      C1126   1.413       .  A
C1125      N1132   1.433       .  S
C1126      C1127   1.403       .  A
C1126      H1131   1.084       .  S
C1127      C1128   1.405   1_545  A
C1128      N1129   1.435       .  S
N1129      H1133   1.044       .  S
N1129      H1134   1.046       .  S
N1132      H1136   1.041       .  S
