geometry optimzed in LAMMPS
_audit_creation_date              2020-12-01 
_audit_creation_method            'lammps2cif' 
_symmetry_space_group_name_H-M    'P1' 
_symmetry_Int_Tables_number       1 
_symmetry_cell_setting            triclinic 
loop_ 
_symmetry_equiv_pos_as_xyz 
  x,y,z 
_cell_length_a                    48.4850647 
_cell_length_b                    48.15370211125741 
_cell_length_c                    45.730805349208026 
_cell_angle_alpha                 89.87249970094487 
_cell_angle_beta                  89.83801566577236 
_cell_angle_gamma                 89.96433084004585 
loop_ 
_atom_site_label 
_atom_site_type_symbol 
_atom_site_fract_x 
_atom_site_fract_y 
_atom_site_fract_z 
_atom_site_charge 
C1          C  0.24037757  0.36240044  0.87519126     0.87200
C2          C  0.21269173  0.36017438  0.85572122    -0.53000
C3          C  0.21481863  0.34449567  0.83055210     0.10200
C4          C  0.24439666  0.33588286  0.82935491     0.21100
C5          C  0.24519825  0.33111546  0.88246108    -0.53700
C6          C  0.24779436  0.31536562  0.85785084     0.10300
C7          C  0.26703878  0.36899667  0.85500786    -0.53300
C8          C  0.26981760  0.35328239  0.82992809     0.10800
H9          H  0.19264596  0.36329836  0.86580590     0.15400
H10         H  0.24362920  0.33990156  0.80580693     0.01100
H11         H  0.24574484  0.32166969  0.90382974     0.15700
H12         H  0.28507537  0.37871782  0.86454157     0.15400
C13         C  0.31345816  0.31016487  0.77101959     0.87200
C14         C  0.31946703  0.28290766  0.79044885    -0.53000
C15         C  0.30344334  0.27978838  0.81512598     0.10200
C16         C  0.28620367  0.30551596  0.81621995     0.21100
C17         C  0.28250741  0.30622463  0.76311220    -0.53700
C18         C  0.26628733  0.30307208  0.78728185     0.10300
C19         C  0.31110565  0.33774609  0.79118465    -0.53300
C20         C  0.29495350  0.33518406  0.81609406     0.10800
H21         H  0.32969627  0.26501880  0.78092234     0.15400
H22         H  0.28991409  0.30563722  0.83983102     0.01100
H23         H  0.27429357  0.30629232  0.74108885     0.15700
H24         H  0.31398474  0.35813492  0.78150090     0.15400
C25         C  0.25992830  0.23453409  0.87175934     0.87200
C26         C  0.28767846  0.23734235  0.85220028    -0.53000
C27         C  0.28539213  0.25414994  0.82774423     0.10200
C28         C  0.25598683  0.26311264  0.82735419     0.21100
C29         C  0.25568252  0.26535133  0.88055057    -0.53700
C30         C  0.25298729  0.28232433  0.85691332     0.10300
C31         C  0.23340084  0.22878054  0.85153697    -0.53300
C32         C  0.23062260  0.24573203  0.82757653     0.10800
H33         H  0.30778110  0.23550160  0.86236082     0.15400
H34         H  0.25649393  0.26014828  0.80361608     0.01100
H35         H  0.25483933  0.27274656  0.90292298     0.15700
H36         H  0.21569853  0.21745027  0.85987234     0.15400
C37         C  0.18616540  0.29046034  0.77208397     0.87200
C38         C  0.18008072  0.31698613  0.79267925    -0.53000
C39         C  0.19656425  0.31944260  0.81708230     0.10200
C40         C  0.21398598  0.29397974  0.81678478     0.21100
C41         C  0.21687414  0.29532894  0.76357839    -0.53700
C42         C  0.23343453  0.29782018  0.78751786     0.10300
C43         C  0.18921643  0.26229952  0.79102459    -0.53300
C44         C  0.20538799  0.26426663  0.81558033     0.10800
H45         H  0.16939200  0.33503944  0.78410286     0.15400
H46         H  0.21060013  0.29285559  0.84045378     0.01100
H47         H  0.22455670  0.29650257  0.74131632     0.15700
H48         H  0.18785098  0.24224242  0.78035545     0.15400
C49         C  0.31996637  0.31471636  0.36872247     0.87200
C50         C  0.31700946  0.34202273  0.34826792    -0.53000
C51         C  0.29895373  0.33974714  0.32513115     0.10200
C52         C  0.28886828  0.31052097  0.32654258     0.21100
C53         C  0.28954726  0.31199470  0.37971884    -0.53700
C54         C  0.27122372  0.30919487  0.35722200     0.10300
C55         C  0.32325113  0.28692046  0.34942495    -0.53300
C56         C  0.30507914  0.28422408  0.32647471     0.10800
H57         H  0.32124014  0.36244801  0.35716543     0.15400
H58         H  0.29074437  0.31024269  0.30273036     0.01100
H59         H  0.28323208  0.31251838  0.40247430     0.15700
H60         H  0.33346697  0.26873223  0.35833386     0.15400
C61         C  0.24206435  0.36960479  0.27063939     0.87200
C62         C  0.27021082  0.37495067  0.28859528    -0.53000
C63         C  0.27389615  0.35887385  0.31323783     0.10200
C64         C  0.24793706  0.34260372  0.31593657     0.21100
C65         C  0.24485112  0.33823280  0.26294126    -0.53700
C66         C  0.24833806  0.32203621  0.28727068     0.10300
C67         C  0.21561893  0.36838203  0.29233085    -0.53300
C68         C  0.21891971  0.35280724  0.31740919     0.10800
H69         H  0.28781982  0.38482037  0.27821907     0.15400
H70         H  0.24905002  0.34661499  0.33940020     0.01100
H71         H  0.24411926  0.32993926  0.24092436     0.15700
H72         H  0.19494228  0.36991276  0.28347611     0.15400
C73         C  0.19142508  0.30086615  0.37883534     0.87200
C74         C  0.19193043  0.27244973  0.36001130    -0.53000
C75         C  0.20673723  0.27335006  0.33424688     0.10200
C76         C  0.21676708  0.30255660  0.33220404     0.21100
C77         C  0.22292482  0.30417152  0.38502671    -0.53700
C78         C  0.23815364  0.30557314  0.35983420     0.10300
C79         C  0.18548272  0.32748173  0.35837756    -0.53300
C80         C  0.20054871  0.32881857  0.33279531     0.10800
H81         H  0.18831914  0.25261229  0.37066050     0.15400
H82         H  0.21192625  0.30152652  0.30891812     0.01100
H83         H  0.23230383  0.30456319  0.40648344     0.15700
H84         H  0.17664094  0.34623083  0.36761690     0.15400
C85         C  0.25619179  0.24021217  0.27394088     0.87200
C86         C  0.23045583  0.23612357  0.29591962    -0.53000
C87         C  0.22999296  0.25345556  0.31989829     0.10200
C88         C  0.25603509  0.26975797  0.31776177     0.21100
C89         C  0.25264583  0.27121322  0.26466650    -0.53700
C90         C  0.25201875  0.28870847  0.28814117     0.10300
C91         C  0.28504707  0.24234855  0.29150368    -0.53300
C92         C  0.28498867  0.25952329  0.31559791     0.10800
H93         H  0.21158564  0.22637974  0.28843480     0.15400
H94         H  0.25790000  0.26711197  0.34139965     0.01100
H95         H  0.25128581  0.27856635  0.24229899     0.15700
H96         H  0.30440054  0.23819814  0.28035617     0.15400
O97         O  0.27232494  0.02412175  0.10391287    -0.72200
O98         O  0.27205389  0.08439976  0.04333542    -0.73200
O99         O  0.27351551  0.08308130  0.10492595    -0.61800
O100        O  0.27097281  0.02540947  0.04169346    -0.70200
O101        O  0.22530911  0.02569696  0.04323314    -0.69800
O102        O  0.22789569  0.08464098  0.10540489    -0.61000
O103        O  0.22623743  0.08450217  0.04339288    -0.73500
O104        O  0.22671844  0.02578692  0.10514612    -0.72300
Cu105      Cu  0.27381543  0.05420023  0.07340699     1.04600
Cu106      Cu  0.22496413  0.05518644  0.07436535     1.04300
C107        C  0.24937643  0.01540960  0.11423467     0.94000
C108        C  0.24915822  0.09390653  0.03385611     0.93100
C109        C  0.25110226  0.09324759  0.11503846     0.85300
C110        C  0.24781035  0.01631628  0.03245772     0.91600
O111        O  0.03231779  0.27726095  0.54272858    -0.72200
O112        O  0.46689753  0.28526894  0.59932097    -0.73200
O113        O  0.47241442  0.28809438  0.53758893    -0.61800
O114        O  0.03109522  0.27445243  0.60402126    -0.70200
O115        O  0.03246061  0.32042145  0.60651118    -0.69800
O116        O  0.47566540  0.33387450  0.53969089    -0.61000
O117        O  0.47016325  0.33099925  0.60180412    -0.73500
O118        O  0.03398059  0.32315855  0.54493551    -0.72300
Cu119      Cu  0.00216425  0.27548700  0.57301593     1.04600
Cu120      Cu  0.00385094  0.32456279  0.57513281     1.04300
C121        C  0.04319301  0.30026123  0.53475182     0.94000
C122        C  0.45838927  0.30839794  0.60962676     0.93100
C123        C  0.46571366  0.31205445  0.52783578     0.85300
C124        C  0.04124001  0.29663048  0.61476111     0.91600
C125        C  0.23818299  0.20248103  0.20238301     0.13400
C126        C  0.25477453  0.17864278  0.20417755     0.00400
C127        C  0.27122836  0.17457939  0.22898163     0.15400
C128        C  0.27158275  0.19426332  0.25138823     0.24800
C129        C  0.25601001  0.21901925  0.24916400    -0.41600
C130        C  0.23822639  0.22209807  0.22492511     0.31800
C131        C  0.25380771  0.15718751  0.18102673     0.00400
F132        F  0.28622107  0.15092291  0.23204249    -0.13900
F133        F  0.22013128  0.24355171  0.22331187    -0.14400
C134        C  0.27785320  0.14959943  0.16583830     0.15400
C135        C  0.27703640  0.12887582  0.14445580     0.24800
C136        C  0.25206765  0.11518078  0.13788759    -0.41500
C137        C  0.22802381  0.12283205  0.15335455     0.31700
C138        C  0.22892299  0.14364907  0.17461087     0.13400
F139        F  0.30212764  0.16256312  0.17146607    -0.13900
F140        F  0.20363060  0.10986223  0.14841165    -0.14400
F141        F  0.30071446  0.12254549  0.13000495    -0.16700
F142        F  0.20553605  0.15014152  0.18950998    -0.15200
F143        F  0.22180297  0.20672395  0.17875173    -0.15200
F144        F  0.28618928  0.18820655  0.27585941    -0.16600
C145        C  0.15806784  0.31413208  0.45428208     0.13400
C146        C  0.13310310  0.29970760  0.45145678     0.00400
C147        C  0.12714314  0.28622471  0.42515244     0.15400
C148        C  0.14587883  0.28695576  0.40195229     0.24800
C149        C  0.17186460  0.29990967  0.40502152    -0.41600
C150        C  0.17721067  0.31449737  0.43124060     0.31800
C151        C  0.11195838  0.30048846  0.47475030     0.00400
F152        F  0.10250580  0.27329727  0.42150599    -0.13900
F153        F  0.20008028  0.33041687  0.43425326    -0.14400
C154        C  0.09677005  0.32484476  0.47957135     0.15400
C155        C  0.07445824  0.32485338  0.49904039     0.24800
C156        C  0.06695244  0.30038807  0.51413116    -0.41500
C157        C  0.08290826  0.27620024  0.50985222     0.31700
C158        C  0.10513894  0.27628407  0.49026795     0.13400
F159        F  0.10298409  0.34840419  0.46457410    -0.13900
F160        F  0.07725879  0.25248338  0.52481871    -0.14400
F161        F  0.05979218  0.34866159  0.50242243    -0.16700
F162        F  0.12000361  0.25267290  0.48631060    -0.15200
F163        F  0.16365880  0.32831165  0.47919950    -0.15200
F164        F  0.13791694  0.27592669  0.37602070    -0.16600
C165        C  0.26394031  0.46570605  0.17008106     0.13400
C166        C  0.24062762  0.44875735  0.17376541     0.00400
C167        C  0.21750052  0.45302902  0.15584865     0.15400
C168        C  0.21756328  0.47408804  0.13473292     0.24800
C169        C  0.24086936  0.49119214  0.13108332    -0.41600
C170        C  0.27304050  0.98441802  0.15095724     0.31800
C171        C  0.23993401  0.42760325  0.19729551     0.00400
F172        F  0.19489868  0.43659737  0.15867886    -0.13900
F173        F  0.29739173  0.99760514  0.14616678    -0.14400
C174        C  0.22000843  0.42939304  0.21945888     0.15400
C175        C  0.22004601  0.41065267  0.24280846     0.24800
C176        C  0.23984172  0.38903630  0.24425374    -0.41500
C177        C  0.25981013  0.38742264  0.22172163     0.31700
C178        C  0.25982652  0.40646889  0.19856700     0.13400
F179        F  0.20120913  0.45032081  0.21929246    -0.13900
F180        F  0.27993382  0.36781067  0.22249784    -0.14400
F181        F  0.20162671  0.41522709  0.26461375    -0.16700
F182        F  0.27946172  0.40440471  0.17744537    -0.15200
F183        F  0.28628564  0.46252427  0.18761297    -0.15200
F184        F  0.19499772  0.47736274  0.11754788    -0.16600
C185        C  0.36114837  0.29949922  0.43864542     0.13400
C186        C  0.38424862  0.31680181  0.43534072     0.00400
C187        C  0.38658415  0.33327253  0.41013983     0.15400
C188        C  0.36598625  0.33276443  0.38873210     0.24800
C189        C  0.34195953  0.31641672  0.39254326    -0.41600
C190        C  0.34046588  0.29899075  0.41739014     0.31800
C191        C  0.40647375  0.31644957  0.45757635     0.00400
F192        F  0.40947675  0.34895589  0.40561733    -0.13900
F193        F  0.31939312  0.28072822  0.42085312    -0.14400
C194        C  0.42051379  0.29163371  0.46366316     0.15400
C195        C  0.44010658  0.29046159  0.48596171     0.24800
C196        C  0.44617370  0.31417436  0.50283535    -0.41500
C197        C  0.43283576  0.33941179  0.49586361     0.31700
C198        C  0.41318258  0.34048944  0.47340916     0.13400
F199        F  0.41523746  0.26839400  0.44787807    -0.13900
F200        F  0.43809831  0.36288310  0.51126549    -0.14400
F201        F  0.45315086  0.26594865  0.49090664    -0.16700
F202        F  0.40000492  0.36480355  0.46777053    -0.15200
F203        F  0.35871232  0.28283212  0.46250474    -0.15200
F204        F  0.37059564  0.34708393  0.36360562    -0.16600
C205        C  0.12635299  0.26923015  0.72185128     0.13400
C206        C  0.12803692  0.28962742  0.70008814     0.00400
C207        C  0.14885437  0.30972033  0.70133944     0.15400
C208        C  0.16776281  0.30958711  0.72428059     0.24800
C209        C  0.16644635  0.28904016  0.74632688    -0.41600
C210        C  0.14496953  0.26915094  0.74505598     0.31800
C211        C  0.10638253  0.29154769  0.67773183     0.00400
F212        F  0.15047103  0.32986272  0.68058265    -0.13900
F213        F  0.14038023  0.25078070  0.76706076    -0.14400
C214        C  0.08756871  0.31366227  0.67856965     0.15400
C215        C  0.06637084  0.31533412  0.65807871     0.24800
C216        C  0.06354084  0.29472837  0.63655475    -0.41500
C217        C  0.08250105  0.27251863  0.63578195     0.31700
C218        C  0.10382464  0.27100992  0.65623476     0.13400
F219        F  0.08942334  0.33331910  0.69971875    -0.13900
F220        F  0.08084637  0.25266302  0.61481614    -0.14400
F221        F  0.04816873  0.33670357  0.65981544    -0.16700
F222        F  0.12220267  0.24974800  0.65488152    -0.15200
F223        F  0.10562763  0.25026597  0.72149514    -0.15200
F224        F  0.18682080  0.33020144  0.72538784    -0.16600
C225        C  0.26865029  0.15880290  0.99272555     0.13400
C226        C  0.25243812  0.15622225  0.96759417     0.00400
C227        C  0.23388776  0.13404438  0.96494261     0.15400
C228        C  0.23218295  0.11402271  0.98700614     0.24800
C229        C  0.24932353  0.11590413  0.01165831    -0.41600
C230        C  0.26723947  0.13864153  0.01461175     0.31800
C231        C  0.25523020  0.17652591  0.94390802     0.00400
F232        F  0.21797955  0.13151774  0.94069533    -0.13900
F233        F  0.28302784  0.14150182  0.03889169    -0.14400
C234        C  0.27727082  0.17459273  0.92415780     0.15400
C235        C  0.27968920  0.19354485  0.90112620     0.24800
C236        C  0.26004190  0.21500146  0.89780103    -0.41500
C237        C  0.23784461  0.21647772  0.91789672     0.31700
C238        C  0.23559741  0.19750551  0.94073851     0.13400
F239        F  0.29594105  0.15369379  0.92667293    -0.13900
F240        F  0.21768458  0.23587739  0.91492333    -0.14400
F241        F  0.30035269  0.18963469  0.88152917    -0.16700
F242        F  0.21399814  0.19936734  0.95960036    -0.15200
F243        F  0.28579251  0.18086722  0.99595276    -0.15200
F244        F  0.21467925  0.09224954  0.98375938    -0.16600
C245        C  0.40357840  0.33419548  0.66306784     0.13400
C246        C  0.39334832  0.30917104  0.67476523     0.00400
C247        C  0.40357167  0.28392553  0.66368257     0.15400
C248        C  0.42383969  0.28373002  0.64182976     0.24800
C249        C  0.43514811  0.30879312  0.63110696    -0.41600
C250        C  0.42443397  0.33406614  0.64182321     0.31800
C251        C  0.37266778  0.30962039  0.69897820     0.00400
F252        F  0.39474779  0.25927458  0.67471995    -0.13900
F253        F  0.43409701  0.35882256  0.63191991    -0.14400
C254        C  0.34864894  0.29331931  0.69778461     0.15400
C255        C  0.32964984  0.29357031  0.72085366     0.24800
C256        C  0.33310964  0.31160364  0.74494528    -0.41500
C257        C  0.35763010  0.32731133  0.74639767     0.31700
C258        C  0.37719406  0.32608606  0.72388846     0.13400
F259        F  0.34346578  0.27696231  0.67429079    -0.13900
F260        F  0.36366208  0.34278111  0.77029783    -0.14400
F261        F  0.30835113  0.27531486  0.71987959    -0.16700
F262        F  0.40124108  0.34018340  0.72708619    -0.15200
F263        F  0.39327049  0.35894603  0.67218883    -0.15200
F264        F  0.43274011  0.25878765  0.63171636    -0.16600
C265        C  0.25966531  0.46927013  0.96316584     0.13400
C266        C  0.23825665  0.44964648  0.96367025     0.00400
C267        C  0.21741711  0.45183268  0.98487524     0.15400
C268        C  0.21774589  0.47357018  0.00516305     0.24800
C269        C  0.23939706  0.49309732  0.00502582    -0.41600
C270        C  0.26038771  0.49067205  0.98383349     0.31800
C271        C  0.23757290  0.42693195  0.94197295     0.00400
F272        F  0.19670243  0.43288642  0.98582385    -0.13900
F273        F  0.28137324  0.50931065  0.98280220    -0.14400
C274        C  0.24385006  0.39965192  0.95030997     0.15400
C275        C  0.24397031  0.37818122  0.92968001     0.24800
C276        C  0.23778942  0.38369254  0.89990873    -0.41500
C277        C  0.23082587  0.41123765  0.89209418     0.31700
C278        C  0.23074597  0.43252345  0.91284040     0.13400
F279        F  0.25075023  0.39392945  0.97845084    -0.13900
F280        F  0.22438477  0.41771124  0.86401163    -0.14600
F281        F  0.25122072  0.35265321  0.93933787    -0.16700
F282        F  0.22405521  0.45873564  0.90445875    -0.15200
F283        F  0.28006681  0.46745712  0.94285705    -0.15200
F284        F  0.19730869  0.47500459  0.02546239    -0.16600
C285        C  0.24487796  0.87442552  0.86847159     0.87200
C286        C  0.21728669  0.87345442  0.84856734    -0.53000
C287        C  0.21808943  0.85562611  0.82491639     0.10200
C288        C  0.24659650  0.84388903  0.82531269     0.21100
C289        C  0.24592023  0.84368798  0.87860193    -0.53700
C290        C  0.24743633  0.82568924  0.85575831     0.10300
C291        C  0.27238471  0.87649029  0.84854922    -0.53300
C292        C  0.27368391  0.85859484  0.82495542     0.10800
H293        H  0.19738873  0.87827479  0.85821912     0.15400
H294        H  0.24655647  0.84558876  0.80147226     0.01100
H295        H  0.24527174  0.83696085  0.90123278     0.15700
H296        H  0.29113756  0.88544207  0.85733468     0.15400
C297        C  0.31325681  0.80652123  0.77119279     0.87200
C298        C  0.31617017  0.78038681  0.79319418    -0.53000
C299        C  0.29969947  0.78109300  0.81779596     0.10200
C300        C  0.28504908  0.80831907  0.81598130     0.21100
C301        C  0.28211556  0.80393866  0.76302923    -0.53700
C302        C  0.26534402  0.80519619  0.78697836     0.10300
C303        C  0.31353708  0.83557522  0.78880807    -0.53300
C304        C  0.29679264  0.83679995  0.81330991     0.10800
H305        H  0.32394043  0.76064689  0.78525016     0.15400
H306        H  0.28845336  0.81016392  0.83954739     0.01100
H307        H  0.27384024  0.80024257  0.74148875     0.15700
H308        H  0.31979347  0.85457487  0.77785986     0.15400
C309        C  0.25184244  0.74591660  0.87830183     0.87200
C310        C  0.27953766  0.74420467  0.85866476    -0.53000
C311        C  0.27901345  0.75880630  0.83267584     0.10200
C312        C  0.25058149  0.77043675  0.83100694     0.21100
C313        C  0.25016224  0.77775057  0.88379860    -0.53700
C314        C  0.24927958  0.79245396  0.85834921     0.10300
C315        C  0.22465381  0.74112080  0.85864824    -0.53300
C316        C  0.22362724  0.75577290  0.83273177     0.10800
H317        H  0.29916169  0.73935127  0.86882613     0.15400
H318        H  0.25088107  0.76534668  0.80770088     0.01100
H319        H  0.25008410  0.78823372  0.90455477     0.15700
H320        H  0.20566299  0.73398426  0.86877536     0.15400
C321        C  0.18423382  0.79954141  0.77161461     0.87200
C322        C  0.18093251  0.82838612  0.78927342    -0.53000
C323        C  0.19753545  0.83138610  0.81354719     0.10200
C324        C  0.21221056  0.80432221  0.81612924     0.21100
C325        C  0.21536935  0.80046033  0.76309546    -0.53700
C326        C  0.23208097  0.80334494  0.78698836     0.10300
C327        C  0.18445300  0.77310636  0.79351325    -0.53300
C328        C  0.20061361  0.77567363  0.81805915     0.10800
H329        H  0.17226409  0.84657459  0.77868096     0.15400
H330        H  0.20841827  0.80577179  0.83969472     0.01100
H331        H  0.22317145  0.79890071  0.74091396     0.15700
H332        H  0.18102045  0.75238657  0.78498423     0.15400
C333        C  0.31937691  0.80596391  0.37051253     0.87200
C334        C  0.31854571  0.83356679  0.35036606    -0.53000
C335        C  0.30112968  0.83253309  0.32647169     0.10200
C336        C  0.28973894  0.80380238  0.32692960     0.21100
C337        C  0.28854486  0.80364542  0.38018428    -0.53700
C338        C  0.27093761  0.80269312  0.35685839     0.10300
C339        C  0.32183675  0.77814638  0.35086591    -0.53300
C340        C  0.30477747  0.77679577  0.32689161     0.10800
H341        H  0.32491780  0.85344997  0.35917310     0.15400
H342        H  0.29227236  0.80380192  0.30320961     0.01100
H343        H  0.28149902  0.80251759  0.40267567     0.15700
H344        H  0.32888284  0.75887527  0.36068009     0.15400
C345        C  0.24726157  0.86548735  0.27000707     0.87200
C346        C  0.27516717  0.86927540  0.28880374    -0.53000
C347        C  0.27736916  0.85287105  0.31352430     0.10200
C348        C  0.25064621  0.83763592  0.31500756     0.21100
C349        C  0.24876066  0.83406025  0.26190181    -0.53700
C350        C  0.25109193  0.81744827  0.28604445     0.10300
C351        C  0.22022595  0.86517933  0.29078307    -0.53300
C352        C  0.22202165  0.84901264  0.31558007     0.10800
H353        H  0.29355083  0.87789171  0.27870000     0.15400
H354        H  0.25112068  0.84119830  0.33856573     0.01100
H355        H  0.24747008  0.82577423  0.23994304     0.15700
H356        H  0.20005860  0.86965393  0.28166246     0.15400
C357        C  0.19015373  0.79750296  0.37487883     0.87200
C358        C  0.19022785  0.76933387  0.35566636    -0.53000
C359        C  0.20594399  0.77001828  0.33056138     0.10200
C360        C  0.21726066  0.79876973  0.32941754     0.21100
C361        C  0.22144400  0.79938076  0.38250094    -0.53700
C362        C  0.23769364  0.80043937  0.35800460     0.10300
C363        C  0.18611385  0.82463852  0.35465393    -0.53300
C364        C  0.20214213  0.82567150  0.32977971     0.10800
H365        H  0.18654624  0.74942308  0.36613608     0.15400
H366        H  0.21314582  0.79824292  0.30594623     0.01100
H367        H  0.22972232  0.79960631  0.40450119     0.15700
H368        H  0.17753682  0.84359522  0.36370291     0.15400
C369        C  0.25591777  0.73546197  0.27186731     0.87200
C370        C  0.22946051  0.73220737  0.29301755    -0.53000
C371        C  0.22890948  0.74940103  0.31701190     0.10200
C372        C  0.25561162  0.76461117  0.31598096     0.21100
C373        C  0.25376944  0.76663376  0.26278690    -0.53700
C374        C  0.25335508  0.78398283  0.28647078     0.10300
C375        C  0.28431255  0.73633373  0.29042892    -0.53300
C376        C  0.28408982  0.75316604  0.31478282     0.10800
H377        H  0.21050911  0.72295968  0.28508484     0.15400
H378        H  0.25657668  0.76150912  0.33961923     0.01100
H379        H  0.25276461  0.77399421  0.24038138     0.15700
H380        H  0.30392379  0.73279220  0.27957235     0.15400
O381        O  0.26433747  0.52204235  0.09881631    -0.72200
O382        O  0.26740707  0.58231891  0.03927152    -0.73200
O383        O  0.26725028  0.58079948  0.10067927    -0.61800
O384        O  0.26395107  0.52352545  0.03693249    -0.70200
O385        O  0.21827265  0.52566734  0.03758533    -0.69800
O386        O  0.22160799  0.58307413  0.10116855    -0.61000
O387        O  0.22181352  0.58517226  0.03931711    -0.73500
O388        O  0.21867695  0.52406065  0.09949413    -0.72300
Cu389      Cu  0.26726535  0.55204356  0.06887229     1.04600
Cu390      Cu  0.21845617  0.55456995  0.06933377     1.04300
C391        C  0.24123194  0.51346398  0.10873172     0.94000
C392        C  0.24529691  0.59380829  0.03026680     0.93100
C393        C  0.24493937  0.59119682  0.11085041     0.85300
C394        C  0.24057863  0.51524927  0.02745023     0.91600
O395        O  0.03259313  0.78021880  0.54056039    -0.72200
O396        O  0.47151570  0.77851494  0.60542833    -0.73200
O397        O  0.46958242  0.78130135  0.54346532    -0.61800
O398        O  0.02892254  0.77889684  0.60214222    -0.70200
O399        O  0.03027486  0.82484555  0.60340157    -0.69800
O400        O  0.47198558  0.82713152  0.54489888    -0.61000
O401        O  0.47366546  0.82439953  0.60689835    -0.73500
O402        O  0.03410568  0.82618081  0.54167157    -0.72300
Cu403      Cu  0.00127464  0.77923384  0.56966702     1.04600
Cu404      Cu  0.00291979  0.82833893  0.57044368     1.04300
C405        C  0.04343451  0.80309480  0.53213024     0.94000
C406        C  0.46330041  0.80160254  0.61611382     0.93100
C407        C  0.46122957  0.80502595  0.53451743     0.85300
C408        C  0.03869583  0.80129062  0.61282526     0.91600
C409        C  0.23193905  0.69718663  0.20287389     0.13400
C410        C  0.25053298  0.67489283  0.20133923     0.00400
C411        C  0.27067882  0.67200921  0.22303718     0.15400
C412        C  0.27267643  0.69132915  0.24566710     0.24800
C413        C  0.25495529  0.71469190  0.24667932    -0.41600
C414        C  0.23401826  0.71679973  0.22532642     0.31800
C415        C  0.24865186  0.65408516  0.17763325     0.00400
F416        F  0.28777789  0.64965693  0.22301351    -0.13900
F417        F  0.21505649  0.73753281  0.22653347    -0.14400
C418        C  0.27101233  0.64998840  0.15853326     0.15400
C419        C  0.26980821  0.62961364  0.13682932     0.24800
C420        C  0.24614405  0.61289218  0.13379985    -0.41500
C421        C  0.22364047  0.61725838  0.15284348     0.31700
C422        C  0.22495526  0.63760648  0.17460547     0.13400
F423        F  0.29397575  0.66597083  0.16075872    -0.13900
F424        F  0.20061427  0.60133475  0.15099493    -0.14400
F425        F  0.29163316  0.62668319  0.11841803    -0.16700
F426        F  0.20338425  0.64067671  0.19332359    -0.15200
F427        F  0.21170617  0.69994610  0.18260232    -0.15200
F428        F  0.29089324  0.68580416  0.26735650    -0.16600
C429        C  0.15441691  0.81810468  0.44660461     0.13400
C430        C  0.13093466  0.80113156  0.44627880     0.00400
C431        C  0.12657657  0.78325521  0.42266735     0.15400
C432        C  0.14563218  0.78183344  0.39985101     0.24800
C433        C  0.17021665  0.79763112  0.40064452    -0.41600
C434        C  0.17384387  0.81649334  0.42396560     0.31800
C435        C  0.11016010  0.80253759  0.46984479     0.00400
F436        F  0.10309328  0.76797071  0.42110111    -0.13900
F437        F  0.19574336  0.83403328  0.42449741    -0.14400
C438        C  0.09361273  0.82621915  0.47305290     0.15400
C439        C  0.07218665  0.82653114  0.49357119     0.24800
C440        C  0.06682610  0.80301505  0.51114121    -0.41500
C441        C  0.08396109  0.77950289  0.50824794     0.31700
C442        C  0.10539862  0.77930612  0.48772000     0.13400
F443        F  0.09747847  0.84861948  0.45542271    -0.13900
F444        F  0.08017998  0.75676375  0.52539789    -0.14400
F445        F  0.05605228  0.84951668  0.49539970    -0.16700
F446        F  0.12145775  0.75632388  0.48503863    -0.15200
F447        F  0.15839531  0.83640347  0.46873719    -0.15200
F448        F  0.13886634  0.76617285  0.37631666    -0.16600
C449        C  0.27229057  0.96255304  0.17116335     0.13400
C450        C  0.24733237  0.94905782  0.17754587     0.00400
C451        C  0.22309134  0.95772392  0.16361509     0.15400
C452        C  0.22375086  0.97936407  0.14326839     0.24800
C453        C  0.24878110  0.99291060  0.13647729    -0.41600
C454        C  0.26410121  0.48668825  0.14894831     0.31800
C455        C  0.24626071  0.92705409  0.20006584     0.00400
F456        F  0.19870758  0.94506474  0.16964125    -0.13900
F457        F  0.28676033  0.50312533  0.14662818    -0.14400
C458        C  0.23230260  0.93194023  0.22637785     0.15400
C459        C  0.23236561  0.91201592  0.24858546     0.24800
C460        C  0.24567383  0.88611387  0.24464163    -0.41500
C461        C  0.26024512  0.88167235  0.21819810     0.31700
C462        C  0.26016840  0.90181087  0.19604816     0.13400
F463        F  0.21953525  0.95665721  0.23106035    -0.13900
F464        F  0.27556493  0.85844103  0.21398861    -0.14400
F465        F  0.22043670  0.91890094  0.27445238    -0.16700
F466        F  0.27398151  0.89681367  0.17072545    -0.15200
F467        F  0.29580928  0.95502012  0.18515926    -0.15200
F468        F  0.19978011  0.98683028  0.13012718    -0.16600
C469        C  0.35459245  0.82460316  0.44362855     0.13400
C470        C  0.37969410  0.81011821  0.44152528     0.00400
C471        C  0.38572433  0.79576464  0.41561874     0.15400
C472        C  0.36669637  0.79486785  0.39273044     0.24800
C473        C  0.34057669  0.80782022  0.39531345    -0.41600
C474        C  0.33543540  0.82384788  0.42064281     0.31800
C475        C  0.39953719  0.80930785  0.46631474     0.00400
F476        F  0.41042176  0.78280585  0.41226580    -0.13900
F477        F  0.31190146  0.83890726  0.42329906    -0.14400
C478        C  0.40784978  0.78362604  0.47797047     0.15400
C479        C  0.42742076  0.78228919  0.50032193     0.24800
C480        C  0.43932684  0.80671881  0.51169159    -0.41500
C481        C  0.43050685  0.83256001  0.50035948     0.31700
C482        C  0.41088716  0.83379208  0.47787496     0.13400
F483        F  0.39689852  0.75962839  0.46766773    -0.13900
F484        F  0.44110539  0.85673269  0.51062160    -0.14400
F485        F  0.43474742  0.75686597  0.51059365    -0.16700
F486        F  0.40365635  0.85891618  0.46674721    -0.15200
F487        F  0.34829620  0.83895641  0.46828142    -0.15200
F488        F  0.37455164  0.78194619  0.36772006    -0.16600
C489        C  0.12157881  0.77966605  0.72431136     0.13400
C490        C  0.12493162  0.79709459  0.70004969     0.00400
C491        C  0.14782527  0.81486275  0.69871933     0.15400
C492        C  0.16704879  0.81533279  0.72154032     0.24800
C493        C  0.16408618  0.79756037  0.74600247    -0.41600
C494        C  0.14056490  0.78011402  0.74721577     0.31800
C495        C  0.10324948  0.79818171  0.67738727     0.00400
F496        F  0.15134645  0.83204148  0.67542003    -0.13900
F497        F  0.13446418  0.76476628  0.77126680    -0.14400
C498        C  0.08669320  0.82194278  0.67459778     0.15400
C499        C  0.06552317  0.82288092  0.65390160     0.24800
C500        C  0.06036984  0.79990653  0.63568114    -0.41500
C501        C  0.07674780  0.77584852  0.63898555     0.31700
C502        C  0.09800544  0.77506394  0.65962484     0.13400
F503        F  0.09060055  0.84401024  0.69254200    -0.13900
F504        F  0.07264815  0.75322408  0.62186646    -0.14400
F505        F  0.04971199  0.84610011  0.65218809    -0.16700
F506        F  0.11367901  0.75179870  0.66211682    -0.15200
F507        F  0.09896264  0.76315982  0.72655501    -0.15200
F508        F  0.18811469  0.83384731  0.72005049    -0.16600
C509        C  0.27393504  0.64504516  0.97495951     0.13400
C510        C  0.25153114  0.66308834  0.97114024     0.00400
C511        C  0.22722660  0.65880331  0.98723778     0.15400
C512        C  0.22505303  0.63624464  0.00640298     0.24800
C513        C  0.24724445  0.61758243  0.00974902    -0.41600
C514        C  0.27184812  0.62246183  0.99399638     0.31800
C515        C  0.25267670  0.68482820  0.94844393     0.00400
F516        F  0.20527271  0.67599018  0.98366064    -0.13900
F517        F  0.29377634  0.60505671  0.99640545    -0.14400
C518        C  0.25526741  0.67714452  0.91907691     0.15400
C519        C  0.25521030  0.69725517  0.89715644     0.24800
C520        C  0.25263713  0.72570363  0.90397768    -0.41500
C521        C  0.25011294  0.73330519  0.93382581     0.31700
C522        C  0.25017062  0.71295787  0.95571152     0.13400
F523        F  0.25700334  0.64993323  0.91155005    -0.13900
F524        F  0.24687912  0.75991327  0.94254738    -0.14400
F525        F  0.25721298  0.68878955  0.86891376    -0.16700
F526        F  0.24767872  0.72075610  0.98412448    -0.15200
F527        F  0.29778370  0.64916617  0.95991167    -0.15200
F528        F  0.20128144  0.63284285  0.02174885    -0.16600
C529        C  0.40538096  0.82694772  0.66554527     0.13400
C530        C  0.39800351  0.80251911  0.68034937     0.00400
C531        C  0.41217240  0.77778370  0.67424100     0.15400
C532        C  0.43363339  0.77748746  0.65370931     0.24800
C533        C  0.44122795  0.80200409  0.63875501    -0.41600
C534        C  0.42682082  0.82678464  0.64503675     0.31800
C535        C  0.37615041  0.80317041  0.70293076     0.00400
F536        F  0.40497298  0.75381878  0.68797219    -0.13900
F537        F  0.43313026  0.85089669  0.63111052    -0.14400
C538        C  0.34878301  0.80905611  0.69532282     0.15400
C539        C  0.32830078  0.81088379  0.71686252     0.24800
C540        C  0.33469306  0.80588913  0.74662041    -0.41500
C541        C  0.36259334  0.80116559  0.75403405     0.31700
C542        C  0.38296027  0.79950381  0.73242139     0.13400
F543        F  0.34191884  0.81334338  0.66689827    -0.13900
F544        F  0.37029670  0.79832854  0.78241300    -0.14400
F545        F  0.30291063  0.81924770  0.70828739    -0.16700
F546        F  0.40956784  0.79501012  0.74034690    -0.15200
F547        F  0.39197315  0.85111002  0.67126811    -0.15200
F548        F  0.44712334  0.75322047  0.64878765    -0.16600
C549        C  0.26925545  0.97088562  0.96840333     0.13400
C550        C  0.24607508  0.95378431  0.96504147     0.00400
C551        C  0.22339401  0.95720781  0.98383612     0.15400
C552        C  0.22384434  0.97754329  0.00569999     0.24800
C553        C  0.24710886  0.99480545  0.00919291    -0.41600
C554        C  0.26978724  0.99124359  0.99018075     0.31800
C555        C  0.24521099  0.93321926  0.94105423     0.00400
F556        F  0.20089391  0.94064246  0.98114182    -0.13900
F557        F  0.29221507  0.00800957  0.99201723    -0.14400
C558        C  0.26272630  0.91005366  0.94128750     0.15400
C559        C  0.26281752  0.89140584  0.91784256     0.24800
C560        C  0.24478564  0.89513109  0.89383331    -0.41500
C561        C  0.22804333  0.91918797  0.89337944     0.31700
C562        C  0.22802762  0.93771558  0.91691719     0.13400
F563        F  0.27985922  0.90554852  0.96425987    -0.13900
F564        F  0.21273558  0.92588704  0.86961216    -0.14600
F565        F  0.28090512  0.86987821  0.91859188    -0.16700
F566        F  0.21192069  0.96076067  0.91566296    -0.15200
F567        F  0.29114010  0.96831464  0.95001336    -0.15200
F568        F  0.20164485  0.98001558  0.02367479    -0.16600
C569        C  0.74434234  0.36621850  0.86947532     0.87200
C570        C  0.71627053  0.36483422  0.85038679    -0.53000
C571        C  0.71682338  0.34724068  0.82654848     0.10200
C572        C  0.74551846  0.33601535  0.82599741     0.21100
C573        C  0.74629284  0.33536812  0.87926493    -0.53700
C574        C  0.74751291  0.31756757  0.85616850     0.10300
C575        C  0.77124851  0.36897404  0.84872507    -0.53300
C576        C  0.77222986  0.35128403  0.82493760     0.10800
H577        H  0.69654063  0.36923340  0.86063554     0.15400
H578        H  0.74482909  0.33789264  0.80221048     0.01100
H579        H  0.74643139  0.32841162  0.90182590     0.15700
H580        H  0.79005799  0.37824401  0.85699461     0.15400
C581        C  0.81157819  0.30064818  0.76916122     0.87200
C582        C  0.81572000  0.27450545  0.79085345    -0.53000
C583        C  0.79958709  0.27443745  0.81576590     0.10200
C584        C  0.78430136  0.30131613  0.81466450     0.21100
C585        C  0.78022202  0.29813565  0.76168403    -0.53700
C586        C  0.76398174  0.29815927  0.78618063     0.10300
C587        C  0.81133816  0.32963128  0.78708980    -0.53300
C588        C  0.79536867  0.33011441  0.81217041     0.10800
H589        H  0.82412952  0.25515055  0.78260346     0.15400
H590        H  0.78821340  0.30294102  0.83813141     0.01100
H591        H  0.77134282  0.29750616  0.74006494     0.15700
H592        H  0.81649296  0.34894204  0.77609599     0.15400
C593        C  0.75390958  0.23751087  0.87716767     0.87200
C594        C  0.78106232  0.23642030  0.85669100    -0.53000
C595        C  0.77968913  0.25154301  0.83102396     0.10200
C596        C  0.75103861  0.26273328  0.83042464     0.21100
C597        C  0.75145721  0.26917927  0.88332910    -0.53700
C598        C  0.75008298  0.28432998  0.85818423     0.10300
C599        C  0.72616856  0.23272899  0.85833103    -0.53300
C600        C  0.72431611  0.24756870  0.83262904     0.10800
H601        H  0.80098234  0.23149376  0.86613973     0.15400
H602        H  0.75081432  0.25796183  0.80706043     0.01100
H603        H  0.74972672  0.27892954  0.90447144     0.15700
H604        H  0.70750690  0.22535135  0.86895284     0.15400
C605        C  0.68242374  0.29131693  0.77347753     0.87200
C606        C  0.67920743  0.31984432  0.79168462    -0.53000
C607        C  0.69646012  0.32278397  0.81541223     0.10200
C608        C  0.71170353  0.29598357  0.81703976     0.21100
C609        C  0.71333623  0.29275054  0.76395905    -0.53700
C610        C  0.73072467  0.29574207  0.78726294     0.10300
C611        C  0.68356259  0.26463853  0.79496827    -0.53300
C612        C  0.70056970  0.26716918  0.81890781     0.10800
H613        H  0.66978502  0.33799836  0.78177450     0.15400
H614        H  0.70858982  0.29704341  0.84072152     0.01100
H615        H  0.72054631  0.29140368  0.74153985     0.15700
H616        H  0.67968521  0.24400536  0.78642650     0.15400
C617        C  0.81748519  0.30981405  0.37546732     0.87200
C618        C  0.81649127  0.33736904  0.35519087    -0.53000
C619        C  0.79966939  0.33586305  0.33081933     0.10200
C620        C  0.78912771  0.30681322  0.33094816     0.21100
C621        C  0.78642883  0.30679877  0.38414751    -0.53700
C622        C  0.76964812  0.30523493  0.36031136     0.10300
C623        C  0.82144558  0.28222716  0.35586873    -0.53300
C624        C  0.80491296  0.28023519  0.33152081     0.10800
H625        H  0.82167296  0.35744838  0.36437660     0.15400
H626        H  0.79213973  0.30683972  0.30728176     0.01100
H627        H  0.77803100  0.30510988  0.40591806     0.15700
H628        H  0.83015428  0.26355901  0.36546384     0.15400
C629        C  0.74597027  0.36733463  0.27320324     0.87200
C630        C  0.77332667  0.37186870  0.29269023    -0.53000
C631        C  0.77550969  0.35543702  0.31737672     0.10200
C632        C  0.74918908  0.33942839  0.31819764     0.21100
C633        C  0.74858942  0.33590854  0.26509464    -0.53700
C634        C  0.75084509  0.31926645  0.28928950     0.10300
C635        C  0.71850600  0.36616777  0.29333146    -0.53300
C636        C  0.72023103  0.34995311  0.31813572     0.10800
H637        H  0.79163700  0.38114532  0.28310117     0.15400
H638        H  0.74905170  0.34318276  0.34174830     0.01100
H639        H  0.74813423  0.32766535  0.24307446     0.15700
H640        H  0.69842510  0.37015046  0.28376159     0.15400
C641        C  0.68898936  0.29770175  0.37718440     0.87200
C642        C  0.68999743  0.26949965  0.35801002    -0.53000
C643        C  0.70610901  0.27051668  0.33310013     0.10200
C644        C  0.71657024  0.29960925  0.33194708     0.21100
C645        C  0.72011566  0.30039206  0.38505164    -0.53700
C646        C  0.73654353  0.30195708  0.36078863     0.10300
C647        C  0.68443930  0.32467777  0.35681700    -0.53300
C648        C  0.70069709  0.32609981  0.33206282     0.10800
H649        H  0.68629822  0.24955014  0.36838578     0.15400
H650        H  0.71310494  0.29892079  0.30837652     0.01100
H651        H  0.72824284  0.30063104  0.40710408     0.15700
H652        H  0.67525049  0.34339684  0.36573922     0.15400
C653        C  0.75853199  0.23721386  0.27560214     0.87200
C654        C  0.73166514  0.23332830  0.29610748    -0.53000
C655        C  0.73002347  0.25060593  0.32002149     0.10200
C656        C  0.75630966  0.26658501  0.31951602     0.21100
C657        C  0.75575718  0.26835267  0.26634322    -0.53700
C658        C  0.75412948  0.28580592  0.28989861     0.10300
C659        C  0.78641914  0.23891022  0.29489369    -0.53300
C660        C  0.78516807  0.25596174  0.31906080     0.10800
H661        H  0.71322298  0.22339242  0.28776572     0.15400
H662        H  0.75688138  0.26346855  0.34318598     0.01100
H663        H  0.75523332  0.27564341  0.24389518     0.15700
H664        H  0.80635852  0.23545831  0.28469974     0.15400
O665        O  0.76902290  0.02086280  0.10534878    -0.72200
O666        O  0.77171202  0.07996142  0.04419109    -0.73200
O667        O  0.77223485  0.07979448  0.10594574    -0.61800
O668        O  0.76826669  0.02097387  0.04315097    -0.70200
O669        O  0.72264112  0.02312361  0.04417724    -0.69800
O670        O  0.72662387  0.08216285  0.10660349    -0.61000
O671        O  0.72614680  0.08247608  0.04460760    -0.73500
O672        O  0.72344421  0.02338915  0.10620312    -0.72300
Cu673      Cu  0.77187243  0.05026505  0.07461074     1.04600
Cu674      Cu  0.72312881  0.05286506  0.07537283     1.04300
C675        C  0.74587106  0.01276275  0.11562605     0.94000
C676        C  0.74942933  0.09100048  0.03498278     0.93100
C677        C  0.74999928  0.09037873  0.11614298     0.85300
C678        C  0.74483901  0.01260400  0.03382519     0.91600
O679        O  0.53046602  0.28254693  0.54303404    -0.72200
O680        O  0.97234455  0.27713118  0.60389080    -0.73200
O681        O  0.97349135  0.27938695  0.54171615    -0.61800
O682        O  0.52516578  0.27979460  0.60437358    -0.70200
O683        O  0.52866878  0.32555449  0.60698232    -0.69800
O684        O  0.97516105  0.32527265  0.54327239    -0.61000
O685        O  0.97382766  0.32299944  0.60556404    -0.73500
O686        O  0.53403437  0.32833087  0.54528684    -0.72300
Cu687      Cu  0.49852704  0.28240028  0.57100599     1.04600
Cu688      Cu  0.50223549  0.33131130  0.57355650     1.04300
C689        C  0.54250566  0.30501011  0.53537184     0.94000
C690        C  0.96350705  0.30006490  0.61447115     0.93100
C691        C  0.96521450  0.30298091  0.53239133     0.85300
C692        C  0.53574519  0.30140400  0.61595808     0.91600
C693        C  0.73688534  0.19819274  0.20613952     0.13400
C694        C  0.75509792  0.17554424  0.20573712     0.00400
C695        C  0.77458264  0.17288124  0.22817848     0.15400
C696        C  0.77624572  0.19274410  0.25042883     0.24800
C697        C  0.75865883  0.21626490  0.25045375    -0.41600
C698        C  0.73850435  0.21819386  0.22826617     0.31800
C699        C  0.75346122  0.15423276  0.18237722     0.00400
F700        F  0.79129160  0.15025205  0.22924537    -0.13900
F701        F  0.71977168  0.23915546  0.22833282    -0.14400
C702        C  0.77585061  0.14999084  0.16334252     0.15400
C703        C  0.77486104  0.12918563  0.14198383     0.24800
C704        C  0.75125519  0.11232609  0.13901688    -0.41500
C705        C  0.72872732  0.11685859  0.15802130     0.31700
C706        C  0.72985842  0.13758072  0.17946460     0.13400
F707        F  0.79855663  0.16638484  0.16516775    -0.13900
F708        F  0.70582283  0.10073265  0.15644422    -0.14400
F709        F  0.79683933  0.12597577  0.12384147    -0.16700
F710        F  0.70810341  0.14097780  0.19787829    -0.15200
F711        F  0.71736952  0.20089635  0.18509838    -0.15200
F712        F  0.79402929  0.18770510  0.27266142    -0.16600
C713        C  0.65403445  0.31593739  0.45030457     0.13400
C714        C  0.63016567  0.29953489  0.44943643     0.00400
C715        C  0.62547944  0.28252846  0.42512400     0.15400
C716        C  0.64444123  0.28168065  0.40206744     0.24800
C717        C  0.66910175  0.29732239  0.40314019    -0.41600
C718        C  0.67307088  0.31523619  0.42724998     0.31800
C719        C  0.60916133  0.30137024  0.47290292     0.00400
F720        F  0.60178521  0.26763563  0.42309040    -0.13900
F721        F  0.69486782  0.33287129  0.42823378    -0.14400
C722        C  0.59507424  0.32640407  0.47785053     0.15400
C723        C  0.57389390  0.32777694  0.49862022     0.24800
C724        C  0.56616210  0.30398364  0.51467558    -0.41500
C725        C  0.58090160  0.27905837  0.51017504     0.31700
C726        C  0.60215728  0.27780787  0.48944292     0.13400
F727        F  0.60110944  0.34930415  0.46168640    -0.13900
F728        F  0.57493725  0.25588080  0.52593160    -0.14400
F729        F  0.56034719  0.35222031  0.50219468    -0.16700
F730        F  0.61592937  0.25353887  0.48542673    -0.15200
F731        F  0.65875921  0.33291731  0.47342119    -0.15200
F732        F  0.63762553  0.26670809  0.37805412    -0.16600
C733        C  0.77193013  0.46294325  0.17165224     0.13400
C734        C  0.74665929  0.45133374  0.18048739     0.00400
C735        C  0.72222026  0.46068267  0.16731036     0.15400
C736        C  0.72303190  0.48079965  0.14520819     0.24800
C737        C  0.74839208  0.49226457  0.13592410    -0.41600
C738        C  0.76947859  0.98214049  0.15241612     0.31800
C739        C  0.74577754  0.42954870  0.20350419     0.00400
F740        F  0.69748999  0.44991752  0.17548415    -0.13900
F741        F  0.79413739  0.99415565  0.14616113    -0.14400
C742        C  0.73083473  0.43390363  0.22938112     0.15400
C743        C  0.73045105  0.41370080  0.25141285     0.24800
C744        C  0.74450252  0.38812117  0.24785989    -0.41500
C745        C  0.76023130  0.38435440  0.22207837     0.31700
C746        C  0.76048952  0.40464209  0.20006663     0.13400
F747        F  0.71749883  0.45834515  0.23389094    -0.13900
F748        F  0.77628625  0.36155589  0.21837158    -0.14400
F749        F  0.71729133  0.42000573  0.27677385    -0.16700
F750        F  0.77536448  0.40002335  0.17534605    -0.15200
F751        F  0.79578490  0.45496818  0.18470360    -0.15200
F752        F  0.69887967  0.48874263  0.13276320    -0.16600
C753        C  0.85500371  0.31146567  0.45027592     0.13400
C754        C  0.88246217  0.30843251  0.44132813     0.00400
C755        C  0.88867342  0.30782992  0.41141328     0.15400
C756        C  0.86752962  0.30965675  0.39068321     0.24800
C757        C  0.83954901  0.31137051  0.39937719    -0.41600
C758        C  0.83375121  0.31329080  0.42970613     0.31800
C759        C  0.90452381  0.30668462  0.46350614     0.00400
F760        F  0.91518755  0.30490503  0.40228364    -0.13900
F761        F  0.80802764  0.31793020  0.44009670    -0.14400
C762        C  0.90942314  0.28169712  0.47840795     0.15400
C763        C  0.92907229  0.28045129  0.50075176     0.24800
C764        C  0.94415376  0.30434805  0.50875740    -0.41500
C765        C  0.93897096  0.32943393  0.49369398     0.31700
C766        C  0.91946968  0.33047367  0.47118064     0.13400
F767        F  0.89494515  0.25851557  0.47144566    -0.13900
F768        F  0.95274102  0.35304602  0.50062281    -0.14400
F769        F  0.93281232  0.25592240  0.51490558    -0.16700
F770        F  0.91475629  0.35489194  0.45715987    -0.15200
F771        F  0.84877975  0.31286615  0.47920790    -0.15200
F772        F  0.87439116  0.30905071  0.36187089    -0.16600
C773        C  0.61775427  0.27363478  0.72821805     0.13400
C774        C  0.62079590  0.29148706  0.70418753     0.00400
C775        C  0.64420894  0.30849236  0.70233600     0.15400
C776        C  0.66418358  0.30791803  0.72433001     0.24800
C777        C  0.66162145  0.28973244  0.74846990    -0.41600
C778        C  0.63769607  0.27289572  0.75028068     0.31800
C779        C  0.59870390  0.29367969  0.68199770     0.00400
F780        F  0.64751489  0.32606255  0.67933227    -0.13900
F781        F  0.63229024  0.25702460  0.77415435    -0.14400
C782        C  0.58423980  0.31872148  0.67848966     0.15400
C783        C  0.56359338  0.32116029  0.65734326     0.24800
C784        C  0.55680152  0.29844493  0.63935191    -0.41500
C785        C  0.57110292  0.27315331  0.64331477     0.31700
C786        C  0.59187072  0.27086269  0.66441057     0.13400
F787        F  0.58990429  0.34078200  0.69590775    -0.13900
F788        F  0.56562443  0.25079049  0.62625657    -0.14400
F789        F  0.55010807  0.34575394  0.65474963    -0.16700
F790        F  0.60579473  0.24652699  0.66721521    -0.15200
F791        F  0.59464283  0.25792605  0.73110534    -0.15200
F792        F  0.68560101  0.32597572  0.72241914    -0.16600
C793        C  0.77761282  0.14661547  0.98407821     0.13400
C794        C  0.75333177  0.15736954  0.97208290     0.00400
C795        C  0.72772847  0.14690941  0.98107342     0.15400
C796        C  0.72634508  0.12547730  0.00163301     0.24800
C797        C  0.75072062  0.11399497  0.01338590    -0.41600
C798        C  0.77641380  0.12506126  0.00449771     0.31800
C799        C  0.75474439  0.17806147  0.94851794     0.00400
F800        F  0.70405453  0.15735014  0.96965870    -0.13900
F801        F  0.80049969  0.11502378  0.01531348    -0.14400
C802        C  0.75080832  0.16961184  0.91961716     0.15400
C803        C  0.75185685  0.18894845  0.89696383     0.24800
C804        C  0.75576329  0.21743413  0.90282758    -0.41500
C805        C  0.76132099  0.22552393  0.93200468     0.31700
C806        C  0.76059340  0.20590797  0.95460007     0.13400
F807        F  0.74600720  0.14248904  0.91336618    -0.13900
F808        F  0.76881930  0.25174973  0.93901099    -0.14400
F809        F  0.74861425  0.17979689  0.86911428    -0.16700
F810        F  0.76555989  0.21408828  0.98249611    -0.15200
F811        F  0.80253783  0.15655488  0.97539478    -0.15200
F812        F  0.70111317  0.11585360  0.00964997    -0.16600
C813        C  0.91135324  0.32501152  0.67134953     0.13400
C814        C  0.89723427  0.30036976  0.67827423     0.00400
C815        C  0.90510036  0.27561887  0.66432916     0.15400
C816        C  0.92676944  0.27542304  0.64398877     0.24800
C817        C  0.94098320  0.30011841  0.63683915    -0.41600
C818        C  0.93300628  0.32493407  0.65098004     0.31800
C819        C  0.87503592  0.30033817  0.70083167     0.00400
F820        F  0.89210937  0.25140463  0.67083278    -0.13900
F821        F  0.94620764  0.34923726  0.64536575    -0.14400
C822        C  0.84826512  0.29122136  0.69416492     0.15400
C823        C  0.82750494  0.29095369  0.71563340     0.24800
C824        C  0.83297525  0.30037453  0.74437944    -0.41500
C825        C  0.86030344  0.30826621  0.75105124     0.31700
C826        C  0.88086155  0.30865865  0.72952887     0.13400
F827        F  0.84216699  0.28247895  0.66672066    -0.13900
F828        F  0.86732046  0.31536503  0.77877054    -0.14400
F829        F  0.80282212  0.27994526  0.70820019    -0.16700
F830        F  0.90679792  0.31652363  0.73696206    -0.15200
F831        F  0.90390298  0.34933717  0.68410979    -0.15200
F832        F  0.93370492  0.25092096  0.63131134    -0.16600
C833        C  0.77106447  0.46283944  0.96916144     0.13400
C834        C  0.74716731  0.44679869  0.96536149     0.00400
C835        C  0.72422357  0.45173644  0.98344420     0.15400
C836        C  0.72500147  0.47264652  0.00471890     0.24800
C837        C  0.74873015  0.48926941  0.00816747    -0.41600
C838        C  0.77185890  0.48389130  0.99025322     0.31800
C839        C  0.74582872  0.42581857  0.94163586     0.00400
F840        F  0.70108177  0.43611957  0.98060588    -0.13900
F841        F  0.79504965  0.49952254  0.99247256    -0.14400
C842        C  0.76322461  0.40252979  0.94182351     0.15400
C843        C  0.76289595  0.38358749  0.91858818     0.24800
C844        C  0.74444095  0.38698923  0.89489003    -0.41500
C845        C  0.72761810  0.41101607  0.89456892     0.31700
C846        C  0.72816097  0.42994052  0.91778735     0.13400
F847        F  0.78064841  0.39815652  0.96457148    -0.13900
F848        F  0.71162116  0.41729645  0.87118749    -0.14600
F849        F  0.78105782  0.36212856  0.91920962    -0.16700
F850        F  0.71212461  0.45303319  0.91643206    -0.15200
F851        F  0.79340348  0.45867037  0.95174231    -0.15200
F852        F  0.70262574  0.47629124  0.02221771    -0.16600
C853        C  0.74127539  0.86922577  0.87030004     0.87200
C854        C  0.71404327  0.86687316  0.84997601    -0.53000
C855        C  0.71650171  0.85022484  0.82552418     0.10200
C856        C  0.74581841  0.84059899  0.82588623     0.21100
C857        C  0.74469980  0.83825261  0.87913224    -0.53700
C858        C  0.74774278  0.82128750  0.85548446     0.10300
C859        C  0.76873993  0.87413390  0.85071845    -0.53300
C860        C  0.77171168  0.85723844  0.82645129     0.10800
H861        H  0.69371907  0.86902906  0.85968367     0.15400
H862        H  0.74587977  0.84341631  0.80216229     0.01100
H863        H  0.74461246  0.83069641  0.90149046     0.15700
H864        H  0.78661226  0.88438983  0.85996237     0.15400
C865        C  0.81545165  0.81039217  0.77055282     0.87200
C866        C  0.82011956  0.78374563  0.79139976    -0.53000
C867        C  0.80339009  0.78216210  0.81582736     0.10200
C868        C  0.78689022  0.80836696  0.81518298     0.21100
C869        C  0.78455457  0.80698118  0.76203086    -0.53700
C870        C  0.76766764  0.80521088  0.78586183     0.10300
C871        C  0.81337597  0.83881280  0.78946117    -0.53300
C872        C  0.79655199  0.83776762  0.81401200     0.10800
H873        H  0.82995868  0.76517247  0.78293091     0.15400
H874        H  0.78981920  0.80937252  0.83885462     0.01100
H875        H  0.77676872  0.80658753  0.73984833     0.15700
H876        H  0.81742374  0.85869745  0.77910442     0.15400
C877        C  0.75710971  0.74082401  0.87383190     0.87200
C878        C  0.78524353  0.74193322  0.85471122    -0.53000
C879        C  0.78413595  0.75781428  0.82947748     0.10200
C880        C  0.75500655  0.76757539  0.82796620     0.21100
C881        C  0.75359479  0.77224374  0.88101598    -0.53700
C882        C  0.75189738  0.78812940  0.85640301     0.10300
C883        C  0.73070308  0.73520174  0.85343044    -0.53300
C884        C  0.72909836  0.75099346  0.82841089     0.10800
H885        H  0.80497090  0.73788063  0.86502504     0.15400
H886        H  0.75595365  0.76354300  0.80444352     0.01100
H887        H  0.75366722  0.78159888  0.90242207     0.15700
H888        H  0.71213895  0.72607206  0.86263081     0.15400
C889        C  0.68759369  0.79422959  0.76894885     0.87200
C890        C  0.68190534  0.82199397  0.78782871    -0.53000
C891        C  0.69785225  0.82514078  0.81260609     0.10200
C892        C  0.71443505  0.79919048  0.81421826     0.21100
C893        C  0.71867348  0.79768824  0.76115060    -0.53700
C894        C  0.73469316  0.80097926  0.78540207     0.10300
C895        C  0.68926118  0.76702411  0.78958260    -0.53300
C896        C  0.70488185  0.76973646  0.81447314     0.10800
H897        H  0.67209564  0.83991985  0.77788295     0.15400
H898        H  0.71042700  0.79935896  0.83778576     0.01100
H899        H  0.72700421  0.79734433  0.73912563     0.15700
H900        H  0.68712515  0.74648675  0.78013316     0.15400
C901        C  0.81516085  0.80635542  0.37277905     0.87200
C902        C  0.81364871  0.83420650  0.35312606    -0.53000
C903        C  0.79641506  0.83304847  0.32917096     0.10200
C904        C  0.78601621  0.80394730  0.32886711     0.21100
C905        C  0.78420960  0.80290588  0.38205848    -0.53700
C906        C  0.76694291  0.80168667  0.35851933     0.10300
C907        C  0.81894725  0.77912025  0.35258344    -0.53300
C908        C  0.80195843  0.77746233  0.32854139     0.10800
H909        H  0.81898750  0.85414964  0.36253847     0.15400
H910        H  0.78898447  0.80451566  0.30515903     0.01100
H911        H  0.77631417  0.80062994  0.40400592     0.15700
H912        H  0.82797120  0.76035646  0.36162118     0.15400
C913        C  0.74215658  0.86515962  0.27317042     0.87200
C914        C  0.76966272  0.86957308  0.29235817    -0.53000
C915        C  0.77210717  0.85289534  0.31676968     0.10200
C916        C  0.74584004  0.83684509  0.31778709     0.21100
C917        C  0.74466089  0.83398850  0.26459396    -0.53700
C918        C  0.74726332  0.81715678  0.28847944     0.10300
C919        C  0.71486896  0.86377849  0.29347868    -0.53300
C920        C  0.71685790  0.84724345  0.31799514     0.10800
H921        H  0.78788112  0.87893341  0.28265857     0.15400
H922        H  0.74592989  0.84008557  0.34144458     0.01100
H923        H  0.74393978  0.82606810  0.24244604     0.15700
H924        H  0.69469259  0.86748359  0.28400824     0.15400
C925        C  0.68606340  0.79371351  0.37563803     0.87200
C926        C  0.68718562  0.76580136  0.35597996    -0.53000
C927        C  0.70318952  0.76732552  0.33103826     0.10200
C928        C  0.71356782  0.79644789  0.33051571     0.21100
C929        C  0.71722583  0.79645619  0.38363570    -0.53700
C930        C  0.73370918  0.79828443  0.35932639     0.10300
C931        C  0.68137364  0.82093525  0.35576838    -0.53300
C932        C  0.69763579  0.82289758  0.33120419     0.10800
H933        H  0.68407494  0.74564701  0.36612907     0.15400
H934        H  0.70955774  0.79619012  0.30698121     0.01100
H935        H  0.72521816  0.79677807  0.40575440     0.15700
H936        H  0.67193666  0.83944278  0.36489350     0.15400
C937        C  0.75498841  0.73604905  0.27200571     0.87200
C938        C  0.72836801  0.73130873  0.29259459    -0.53000
C939        C  0.72697353  0.74767284  0.31727047     0.10200
C940        C  0.75324814  0.76373095  0.31713195     0.21100
C941        C  0.75213050  0.76739978  0.26400165    -0.53700
C942        C  0.75063355  0.78385004  0.28819598     0.10300
C943        C  0.78309580  0.73711524  0.29093840    -0.53300
C944        C  0.78218723  0.75334356  0.31576553     0.10800
H945        H  0.70973267  0.72218855  0.28371650     0.15400
H946        H  0.75407954  0.76017796  0.34073117     0.01100
H947        H  0.75228355  0.77593385  0.24208738     0.15700
H948        H  0.80280743  0.73279725  0.28059910     0.15400
O949        O  0.77240104  0.52176548  0.10195019    -0.72200
O950        O  0.77422716  0.58019952  0.03913974    -0.73200
O951        O  0.77427564  0.58053850  0.10124543    -0.61800
O952        O  0.77248109  0.52100809  0.03970871    -0.70200
O953        O  0.72684115  0.52231171  0.03997688    -0.69800
O954        O  0.72869929  0.58222361  0.10133030    -0.61000
O955        O  0.72862853  0.58165819  0.03916627    -0.73500
O956        O  0.72681196  0.52347177  0.10207192    -0.72300
Cu957      Cu  0.77491488  0.55083617  0.07044329     1.04600
Cu958      Cu  0.72617241  0.55247592  0.07057006     1.04300
C959        C  0.74926402  0.51348354  0.11220445     0.94000
C960        C  0.75173853  0.59042967  0.02933049     0.93100
C961        C  0.75181909  0.59067903  0.11131001     0.85300
C962        C  0.74937661  0.51194652  0.03029145     0.91600
O963        O  0.52810901  0.77803649  0.54128643    -0.72200
O964        O  0.97020721  0.78160655  0.59920572    -0.73200
O965        O  0.97388301  0.78252629  0.53696627    -0.61800
O966        O  0.53030579  0.77500532  0.60262984    -0.70200
O967        O  0.53238577  0.82090611  0.60466453    -0.69800
O968        O  0.97562193  0.82848176  0.53707516    -0.61000
O969        O  0.97160304  0.82749958  0.59948126    -0.73500
O970        O  0.53057007  0.82394403  0.54314971    -0.72300
Cu971      Cu  0.49972009  0.77663393  0.57316299     1.04600
Cu972      Cu  0.50220240  0.82568214  0.57503664     1.04300
C973        C  0.53870250  0.80086520  0.53245220     0.94000
C974        C  0.96106423  0.80480987  0.60882140     0.93100
C975        C  0.96598128  0.80587749  0.52660802     0.85300
C976        C  0.54138261  0.79708804  0.61259415     0.91600
C977        C  0.74252032  0.70078998  0.19764228     0.13400
C978        C  0.75512033  0.67485570  0.20196495     0.00400
C979        C  0.76731253  0.66898752  0.22906878     0.15400
C980        C  0.76747947  0.68890317  0.25124555     0.24800
C981        C  0.75571628  0.71541667  0.24678098    -0.41600
C982        C  0.74201332  0.72051414  0.22003202     0.31800
C983        C  0.75432238  0.65340246  0.17877181     0.00400
F984        F  0.77816261  0.64349363  0.23449775    -0.13900
F985        F  0.72670328  0.74373697  0.21577609    -0.14400
C986        C  0.77881575  0.64143023  0.16826617     0.15400
C987        C  0.77803406  0.62094495  0.14663537     0.24800
C988        C  0.75264480  0.61219084  0.13469679    -0.41500
C989        C  0.72808623  0.62413054  0.14560944     0.31700
C990        C  0.72897333  0.64443959  0.16741074     0.13400
F991        F  0.80362201  0.64985946  0.17872069    -0.13900
F992        F  0.70304921  0.61610258  0.13546541    -0.14400
F993        F  0.80225910  0.60965734  0.13760420    -0.16700
F994        F  0.70492812  0.65499223  0.17789977    -0.15200
F995        F  0.73032560  0.70694318  0.17172582    -0.15200
F996        F  0.77832552  0.68172400  0.27753852    -0.16600
C997        C  0.64815571  0.81527097  0.44567022     0.13400
C998        C  0.62495693  0.79792882  0.44519900     0.00400
C999        C  0.62182632  0.77890007  0.42233086     0.15400
C1000       C  0.64170021  0.77690026  0.40032245     0.24800
C1001       C  0.66581795  0.79340891  0.40116188    -0.41600
C1002       C  0.66831694  0.81316812  0.42383337     0.31800
C1003       C  0.60373879  0.79947140  0.46835938     0.00400
F1004       F  0.59879120  0.76293961  0.42068390    -0.13900
F1005       F  0.68979647  0.83122486  0.42436313    -0.14400
C1006       C  0.58790448  0.82361521  0.47226307     0.15400
C1007       C  0.56664043  0.82413805  0.49301734     0.24800
C1008       C  0.56094145  0.80047619  0.51021954    -0.41500
C1009       C  0.57725825  0.77651607  0.50651380     0.31700
C1010       C  0.59842423  0.77607502  0.48579284     0.13400
F1011       F  0.59254712  0.84641134  0.45542620    -0.13900
F1012       F  0.57318528  0.75361947  0.52335841    -0.14400
F1013       F  0.55123794  0.84756006  0.49572720    -0.16700
F1014       F  0.61399412  0.75279009  0.48285367    -0.15200
F1015       F  0.65122647  0.83434466  0.46723806    -0.15200
F1016       F  0.63611295  0.76000382  0.37740225    -0.16600
C1017       C  0.76870572  0.96113823  0.17349586     0.13400
C1018       C  0.74359558  0.94849733  0.18100827     0.00400
C1019       C  0.71923020  0.95716628  0.16728299     0.15400
C1020       C  0.71987300  0.97818844  0.14625752     0.24800
C1021       C  0.74505408  0.99085982  0.13840166    -0.41600
C1022       C  0.77283173  0.48323991  0.14971139     0.31800
C1023       C  0.74259734  0.92681891  0.20380246     0.00400
F1024       F  0.69477997  0.94494648  0.17401322    -0.13900
F1025       F  0.79769455  0.49418579  0.14228997    -0.14400
C1026       C  0.72674513  0.93099870  0.22906222     0.15400
C1027       C  0.72601059  0.91089146  0.25102885     0.24800
C1028       C  0.74076308  0.88571894  0.24794760    -0.41500
C1029       C  0.75747811  0.88218432  0.22284460     0.31700
C1030       C  0.75799167  0.90233417  0.20084205     0.13400
F1031       F  0.71283670  0.95520278  0.23302581    -0.13900
F1032       F  0.77420584  0.85976262  0.21987367    -0.14400
F1033       F  0.71198017  0.91700801  0.27591197    -0.16700
F1034       F  0.77377325  0.89803980  0.17668889    -0.15200
F1035       F  0.79243560  0.95354685  0.18706120    -0.15200
F1036       F  0.69579702  0.98580664  0.13343665    -0.16600
C1037       C  0.85409431  0.81131589  0.44650795     0.13400
C1038       C  0.88152537  0.80870693  0.43714679     0.00400
C1039       C  0.88715598  0.80676965  0.40715332     0.15400
C1040       C  0.86556453  0.80674502  0.38686211     0.24800
C1041       C  0.83771127  0.80822613  0.39609409    -0.41600
C1042       C  0.83242863  0.81155088  0.42633845     0.31800
C1043       C  0.90407375  0.80768239  0.45893707     0.00400
F1044       F  0.91355780  0.80414815  0.39755456    -0.13900
F1045       F  0.80677150  0.81630062  0.43688036    -0.14400
C1046       C  0.90616636  0.78491977  0.47799081     0.15400
C1047       C  0.92654734  0.78420409  0.49954612     0.24800
C1048       C  0.94512361  0.80649719  0.50281008    -0.41500
C1049       C  0.94308833  0.82929245  0.48348257     0.31700
C1050       C  0.92281810  0.82976074  0.46162394     0.13400
F1051       F  0.88824828  0.76336909  0.47580964    -0.13900
F1052       F  0.96078458  0.85103667  0.48555451    -0.14400
F1053       F  0.92745685  0.76199006  0.51785312    -0.16700
F1054       F  0.92099606  0.85208839  0.44354215    -0.15200
F1055       F  0.84828670  0.81403813  0.47542346    -0.15200
F1056       F  0.87192475  0.80479018  0.35798875    -0.16600
C1057       C  0.62776078  0.77225691  0.71891141     0.13400
C1058       C  0.63120181  0.79032546  0.69514662     0.00400
C1059       C  0.65328633  0.80911184  0.69509139     0.15400
C1060       C  0.67147006  0.81016107  0.71871964     0.24800
C1061       C  0.66844415  0.79182235  0.74266797    -0.41600
C1062       C  0.64584632  0.77318980  0.74260835     0.31800
C1063       C  0.60952492  0.79220231  0.67260537     0.00400
F1064       F  0.65670144  0.82710330  0.67246699    -0.13900
F1065       F  0.63966067  0.75724319  0.76621857    -0.14400
C1066       C  0.59350229  0.81638225  0.67069941     0.15400
C1067       C  0.57148889  0.81793763  0.65119890     0.24800
C1068       C  0.56492425  0.79521723  0.63317501    -0.41500
C1069       C  0.58140391  0.77105832  0.63475143     0.31700
C1070       C  0.60351551  0.76959568  0.65437089     0.13400
F1071       F  0.59865068  0.83826773  0.68854068    -0.13900
F1072       F  0.57646581  0.74902163  0.61704253    -0.14400
F1073       F  0.55614393  0.84151556  0.65063484    -0.16700
F1074       F  0.61916969  0.74621483  0.65548633    -0.15200
F1075       F  0.60568996  0.75492433  0.72007839    -0.15200
F1076       F  0.69142172  0.82992678  0.71857347    -0.16600
C1077       C  0.77829597  0.64098352  0.97173979     0.13400
C1078       C  0.75414280  0.65515910  0.96393949     0.00400
C1079       C  0.72913626  0.64812241  0.97757290     0.15400
C1080       C  0.72826159  0.62710544  0.99872507     0.24800
C1081       C  0.75249548  0.61265921  0.00666059    -0.41600
C1082       C  0.77755939  0.61998705  0.99286930     0.31800
C1083       C  0.75517239  0.67730252  0.94154821     0.00400
F1084       F  0.70544929  0.66140189  0.97009603    -0.13900
F1085       F  0.80149201  0.60686463  0.99965836    -0.14400
C1086       C  0.76343235  0.67114982  0.91290344     0.15400
C1087       C  0.76465766  0.69206651  0.89175694     0.24800
C1088       C  0.75779143  0.71977151  0.89873978    -0.41500
C1089       C  0.74857971  0.72556529  0.92753176     0.31700
C1090       C  0.74768368  0.70457309  0.94866098     0.13400
F1091       F  0.76942879  0.64461316  0.90515550    -0.13900
F1092       F  0.73865079  0.75073757  0.93539121    -0.14400
F1093       F  0.77170921  0.68498871  0.86398781    -0.16700
F1094       F  0.73909423  0.71086384  0.97615525    -0.15200
F1095       F  0.80276931  0.64782493  0.95913428    -0.15200
F1096       F  0.70365987  0.62118819  0.01154148    -0.16600
C1097       C  0.90575365  0.83159414  0.66135175     0.13400
C1098       C  0.89683963  0.80705840  0.67513272     0.00400
C1099       C  0.90857569  0.78165260  0.66641378     0.15400
C1100       C  0.92911338  0.78084002  0.64474844     0.24800
C1101       C  0.93844307  0.80548183  0.63115074    -0.41600
C1102       C  0.92625981  0.83087994  0.63968561     0.31800
C1103       C  0.87585484  0.80815406  0.69905773     0.00400
F1104       F  0.90076359  0.75758400  0.67954250    -0.13900
F1105       F  0.93410208  0.85521868  0.62714694    -0.14400
C1106       C  0.85142773  0.79257982  0.69741790     0.15400
C1107       C  0.83202322  0.79327583  0.72020842     0.24800
C1108       C  0.83585762  0.81068608  0.74480756    -0.41500
C1109       C  0.86097416  0.82545217  0.74673293     0.31700
C1110       C  0.88054702  0.82430354  0.72411813     0.13400
F1111       F  0.84631555  0.77651939  0.67367436    -0.13900
F1112       F  0.86740162  0.84007245  0.77110654    -0.14400
F1113       F  0.80996984  0.77604419  0.71839093    -0.16700
F1114       F  0.90471059  0.83821083  0.72724055    -0.15200
F1115       F  0.89436919  0.85638539  0.66873891    -0.15200
F1116       F  0.94025158  0.75586291  0.63766362    -0.16600
C1117       C  0.76372484  0.96702053  0.96876901     0.13400
C1118       C  0.74112370  0.94882854  0.96732113     0.00400
C1119       C  0.71963364  0.95168459  0.98779314     0.15400
C1120       C  0.72076694  0.97234599  0.00939867     0.24800
C1121       C  0.74345994  0.99062774  0.01093015    -0.41600
C1122       C  0.76491344  0.98766962  0.99030212     0.31800
C1123       C  0.73977690  0.92749132  0.94385697     0.00400
F1124       F  0.69769383  0.93419063  0.98706771    -0.13900
F1125       F  0.78670824  0.00535263  0.99034696    -0.14400
C1126       C  0.75932500  0.90602678  0.94251133     0.15400
C1127       C  0.75936140  0.88719864  0.91916296     0.24800
C1128       C  0.73959017  0.88911130  0.89652743    -0.41500
C1129       C  0.71996522  0.91089498  0.89814148     0.31700
C1130       C  0.71998000  0.92956622  0.92165100     0.13400
F1131       F  0.77863080  0.90343330  0.96379405    -0.13900
F1132       F  0.70163303  0.91553808  0.87634509    -0.14600
F1133       F  0.77922693  0.86732182  0.91850320    -0.16700
F1134       F  0.70134787  0.95062803  0.92199729    -0.15200
F1135       F  0.78436776  0.96524325  0.94873458    -0.15200
F1136       F  0.69992201  0.97403306  0.02920452    -0.16600
loop_ 
_geom_bond_atom_site_label_1 
_geom_bond_atom_site_label_2 
_geom_bond_distance 
_geom_bond_site_symmetry_2 
_ccdc_geom_bond_type 
C1            C2   1.617       .  S
C1            C7   1.617       .  S
C1            C5   1.560       .  S
C1          C276   1.533       .  S
C2            H9   1.085       .  S
C2            C3   1.382       .  D
C3            C4   1.494       .  S
C3           C39   1.620       .  S
C4            C8   1.491       .  S
C4            C6   1.642       .  S
C4           H10   1.094       .  S
C5           H11   1.077       .  S
C5            C6   1.364       .  D
C6           C30   1.611       .  S
C7           H12   1.085       .  S
C7            C8   1.382       .  D
C8           C20   1.625       .  S
C13          C14   1.610       .  S
C13          C19   1.622       .  S
C13          C17   1.556       .  S
C13         C256   1.526       .  S
C14          H21   1.085       .  S
C14          C15   1.376       .  D
C15          C16   1.495       .  S
C15          C27   1.618       .  S
C16          C20   1.491       .  S
C16          C18   1.645       .  S
C16          H22   1.095       .  S
C17          H23   1.084       .  S
C17          C18   1.363       .  D
C18          C42   1.613       .  S
C19          H24   1.085       .  S
C19          C20   1.386       .  D
C25          C26   1.619       .  S
C25          C31   1.611       .  S
C25          C29   1.552       .  S
C25         C236   1.516       .  S
C26          H33   1.084       .  S
C26          C27   1.384       .  D
C27          C28   1.489       .  S
C28          C32   1.488       .  S
C28          C30   1.646       .  S
C28          H34   1.095       .  S
C29          H35   1.085       .  S
C29          C30   1.360       .  D
C31          H36   1.085       .  S
C31          C32   1.372       .  D
C32          C44   1.611       .  S
C37          C38   1.615       .  S
C37          C43   1.614       .  S
C37          C41   1.556       .  S
C37         C209   1.521       .  S
C38          H45   1.085       .  S
C38          C39   1.380       .  D
C39          C40   1.489       .  S
C40          C44   1.492       .  S
C40          C42   1.645       .  S
C40          H46   1.096       .  S
C41          H47   1.084       .  S
C41          C42   1.365       .  D
C43          H48   1.085       .  S
C43          C44   1.375       .  D
C49          C50   1.619       .  S
C49          C55   1.612       .  S
C49          C53   1.562       .  S
C49         C189   1.529       .  S
C50          H57   1.085       .  S
C50          C51   1.380       .  D
C51          C52   1.491       .  S
C51          C63   1.619       .  S
C52          C56   1.490       .  S
C52          C54   1.642       .  S
C52          H58   1.093       .  S
C53          H59   1.084       .  S
C53          C54   1.368       .  D
C54          C78   1.617       .  S
C55          H60   1.085       .  S
C55          C56   1.379       .  D
C56          C92   1.618       .  S
C61          C62   1.616       .  S
C61          C67   1.620       .  S
C61          C65   1.558       .  S
C61         C176   1.529       .  S
C62          H69   1.085       .  S
C62          C63   1.378       .  D
C63          C64   1.488       .  S
C64          C68   1.491       .  S
C64          C66   1.645       .  S
C64          H70   1.092       .  S
C65          H71   1.085       .  S
C65          C66   1.368       .  D
C66          C90   1.615       .  S
C67          H72   1.085       .  S
C67          C68   1.379       .  D
C68          C80   1.618       .  S
C73          C74   1.618       .  S
C73          C79   1.611       .  S
C73          C77   1.562       .  S
C73         C149   1.526       .  S
C74          H81   1.085       .  S
C74          C75   1.379       .  D
C75          C76   1.491       .  S
C75          C87   1.618       .  S
C76          C80   1.489       .  S
C76          C78   1.644       .  S
C76          H82   1.092       .  S
C77          H83   1.083       .  S
C77          C78   1.368       .  D
C79          H84   1.085       .  S
C79          C80   1.379       .  D
C85          C86   1.612       .  S
C85          C91   1.619       .  S
C85          C89   1.561       .  S
C85         C129   1.527       .  S
C86          H93   1.085       .  S
C86          C87   1.380       .  D
C87          C88   1.490       .  S
C88          C92   1.491       .  S
C88          C90   1.644       .  S
C88          H94   1.092       .  S
C89          H95   1.084       .  S
C89          C90   1.366       .  D
C91          H96   1.085       .  S
C91          C92   1.379       .  D
O97        Cu105   2.010       .  S
O97         C107   1.278       .  A
O98        Cu105   2.001       .  S
O98         C108   1.277       .  A
O99        Cu105   2.005       .  S
O99         C109   1.277       .  A
O100       Cu105   2.014       .  S
O100        C110   1.279       .  A
O101       Cu106   2.013       .  S
O101        C110   1.278       .  A
O102       Cu106   2.014       .  S
O102        C109   1.279       .  A
O103       Cu106   1.998       .  S
O103        C108   1.276       .  A
O104       Cu106   1.996       .  S
O104        C107   1.277       .  A
Cu105      Cu106   2.369       .  S
C107        C453   1.485   1_545  S
C108        C229   1.466       .  S
C109        C136   1.488       .  S
C110        C553   1.487   1_545  S
O111       Cu119   2.013       .  S
O111        C121   1.279       .  A
O112       Cu687   2.009       .  S
O112        C122   1.278       .  A
O113       Cu687   2.006       .  S
O113        C123   1.278       .  A
O114       Cu119   1.998       .  S
O114        C124   1.276       .  A
O115       Cu120   2.008       .  S
O115        C124   1.278       .  A
O116       Cu688   2.021       .  S
O116        C123   1.279       .  A
O117       Cu688   2.019       .  S
O117        C122   1.279       .  A
O118       Cu120   2.009       .  S
O118        C121   1.278       .  A
Cu119       O680   2.020   1_455  S
Cu119       O681   2.007   1_455  S
Cu119      Cu120   2.367       .  S
Cu120       O684   2.017   1_455  S
Cu120       O685   2.012   1_455  S
C121        C156   1.487       .  S
C122        C249   1.493       .  S
C123        C196   1.490       .  S
C124        C216   1.475       .  S
C125        C126   1.404       .  A
C125        C130   1.400       .  A
C125        F143   1.358       .  S
C126        C131   1.482       .  S
C126        C127   1.402       .  A
C127        C128   1.398       .  A
C127        F132   1.358       .  S
C128        C129   1.414       .  A
C128        F144   1.357       .  S
C129        C130   1.414       .  A
C130        F133   1.357       .  S
C131        C134   1.404       .  A
C131        C138   1.404       .  A
C134        C135   1.399       .  A
C134        F139   1.358       .  S
C135        C136   1.412       .  A
C135        F141   1.358       .  S
C136        C137   1.411       .  A
C137        C138   1.399       .  A
C137        F140   1.358       .  S
C138        F142   1.358       .  S
C145        C146   1.402       .  A
C145        C150   1.402       .  A
C145        F163   1.358       .  S
C146        C151   1.477       .  S
C146        C147   1.399       .  A
C147        C148   1.395       .  A
C147        F152   1.358       .  S
C148        C149   1.414       .  A
C148        F164   1.358       .  S
C149        C150   1.416       .  A
C150        F153   1.356       .  S
C151        C154   1.402       .  A
C151        C158   1.402       .  A
C154        C155   1.399       .  A
C154        F159   1.358       .  S
C155        C156   1.411       .  A
C155        F161   1.358       .  S
C156        C157   1.412       .  A
C157        C158   1.399       .  A
C157        F160   1.358       .  S
C158        F162   1.358       .  S
C165        C166   1.404       .  A
C165        C454   1.397       .  A
C165        F183   1.358       .  S
C166        C171   1.480       .  S
C166        C167   1.405       .  A
C167        C168   1.399       .  A
C167        F172   1.358       .  S
C168        C169   1.408       .  A
C168        F184   1.358       .  S
C169        C391   1.480       .  S
C169        C454   1.410       .  A
C170        C449   1.400       .  A
C170        C453   1.411       .  A
C170        F173   1.358       .  S
C171        C174   1.401       .  A
C171        C178   1.403       .  A
C174        C175   1.397       .  A
C174        F179   1.358       .  S
C175        C176   1.417       .  A
C175        F181   1.355       .  S
C176        C177   1.414       .  A
C177        C178   1.399       .  A
C177        F180   1.358       .  S
C178        F182   1.358       .  S
C185        C186   1.404       .  A
C185        C190   1.399       .  A
C185        F203   1.358       .  S
C186        C191   1.484       .  S
C186        C187   1.402       .  A
C187        C188   1.401       .  A
C187        F192   1.358       .  S
C188        C189   1.417       .  A
C188        F204   1.357       .  S
C189        C190   1.413       .  A
C190        F193   1.357       .  S
C191        C194   1.403       .  A
C191        C198   1.406       .  A
C194        C195   1.397       .  A
C194        F199   1.358       .  S
C195        C196   1.411       .  A
C195        F201   1.358       .  S
C196        C197   1.413       .  A
C197        C198   1.404       .  A
C197        F200   1.358       .  S
C198        F202   1.358       .  S
C205        C206   1.399       .  A
C205        C210   1.395       .  A
C205        F223   1.358       .  S
C206        C211   1.470       .  S
C206        C207   1.400       .  A
C207        C208   1.395       .  A
C207        F212   1.358       .  S
C208        C209   1.412       .  A
C208        F224   1.358       .  S
C209        C210   1.417       .  A
C210        F213   1.356       .  S
C211        C214   1.402       .  A
C211        C218   1.402       .  A
C214        C215   1.395       .  A
C214        F219   1.358       .  S
C215        C216   1.406       .  A
C215        F221   1.358       .  S
C216        C217   1.410       .  A
C217        C218   1.398       .  A
C217        F220   1.358       .  S
C218        F222   1.358       .  S
C225        C226   1.400       .  A
C225        C230   1.394   1_556  A
C225        F243   1.358       .  S
C226        C231   1.464       .  S
C226        C227   1.402       .  A
C227        C228   1.396       .  A
C227        F232   1.358       .  S
C228        C229   1.406   1_556  A
C228        F244   1.358       .  S
C229        C230   1.405       .  A
C230        F233   1.358       .  S
C231        C234   1.400       .  A
C231        C238   1.395       .  A
C234        C235   1.397       .  A
C234        F239   1.358       .  S
C235        C236   1.413       .  A
C235        F241   1.356       .  S
C236        C237   1.415       .  A
C237        C238   1.390       .  A
C237        F240   1.359       .  S
C238        F242   1.358       .  S
C245        C246   1.407       .  A
C245        C250   1.400       .  A
C245        F263   1.358       .  S
C246        C251   1.492       .  S
C246        C247   1.407       .  A
C247        C248   1.400       .  A
C247        F252   1.358       .  S
C248        C249   1.412       .  A
C248        F264   1.358       .  S
C249        C250   1.411       .  A
C250        F253   1.358       .  S
C251        C254   1.406       .  A
C251        C258   1.407       .  A
C254        C255   1.399       .  A
C254        F259   1.358       .  S
C255        C256   1.415       .  A
C255        F261   1.357       .  S
C256        C257   1.411       .  A
C257        C258   1.399       .  A
C257        F260   1.357       .  S
C258        F262   1.358       .  S
C265        C266   1.404       .  A
C265        C270   1.400       .  A
C265        F283   1.358       .  S
C266        C271   1.479       .  S
C266        C267   1.403       .  A
C267        C268   1.400   1_556  A
C267        F272   1.358       .  S
C268        C269   1.410       .  A
C268        F284   1.358       .  S
C269        C394   1.483       .  S
C269        C270   1.408   1_554  A
C270        F273   1.358       .  S
C271        C274   1.401       .  A
C271        C278   1.399       .  A
C274        C275   1.401       .  A
C274        F279   1.358       .  S
C275        C276   1.419       .  A
C275        F281   1.352       .  S
C276        C277   1.414       .  A
C277        C278   1.398       .  A
C277        F280   1.358       .  S
C278        F282   1.358       .  S
C285        C286   1.621       .  S
C285        C291   1.616       .  S
C285        C289   1.551       .  S
C285        C560   1.531       .  S
C286        H293   1.085       .  S
C286        C287   1.383       .  D
C287        C288   1.493       .  S
C287        C323   1.623       .  S
C288        C292   1.493       .  S
C288        C290   1.644       .  S
C288        H294   1.093       .  S
C289        H295   1.084       .  S
C289        C290   1.361       .  D
C290        C314   1.607       .  S
C291        H296   1.085       .  S
C291        C292   1.384       .  D
C292        C304   1.624       .  S
C297        C298   1.616       .  S
C297        C303   1.616       .  S
C297        C301   1.561       .  S
C297        C540   1.529       .  S
C298        H305   1.085       .  S
C298        C299   1.378       .  D
C299        C300   1.493       .  S
C299        C311   1.617       .  S
C300        C304   1.490       .  S
C300        C302   1.644       .  S
C300        H306   1.095       .  S
C301        H307   1.080       .  S
C301        C302   1.364       .  D
C302        C326   1.615       .  S
C303        H308   1.085       .  S
C303        C304   1.383       .  D
C309        C310   1.615       .  S
C309        C315   1.615       .  S
C309        C313   1.556       .  S
C309        C520   1.524       .  S
C310        H317   1.085       .  S
C310        C311   1.380       .  D
C311        C312   1.490       .  S
C312        C316   1.488       .  S
C312        C314   1.642       .  S
C312        H318   1.094       .  S
C313        H319   1.076       .  S
C313        C314   1.362       .  D
C315        H320   1.085       .  S
C315        C316   1.379       .  D
C316        C328   1.617       .  S
C321        C322   1.616       .  S
C321        C327   1.618       .  S
C321        C325   1.559       .  S
C321        C493   1.530       .  S
C322        H329   1.085       .  S
C322        C323   1.381       .  D
C323        C324   1.489       .  S
C324        C328   1.492       .  S
C324        C326   1.643       .  S
C324        H330   1.095       .  S
C325        H331   1.084       .  S
C325        C326   1.369       .  D
C327        H332   1.085       .  S
C327        C328   1.377       .  D
C333        C334   1.616       .  S
C333        C339   1.619       .  S
C333        C337   1.562       .  S
C333        C473   1.536       .  S
C334        H341   1.085       .  S
C334        C335   1.384       .  D
C335        C336   1.490       .  S
C335        C347   1.624       .  S
C336        C340   1.491       .  S
C336        C338   1.643       .  S
C336        H342   1.091       .  S
C337        H343   1.084       .  S
C337        C338   1.369       .  D
C338        C362   1.616       .  S
C339        H344   1.085       .  S
C339        C340   1.377       .  D
C340        C376   1.617       .  S
C345        C346   1.616       .  S
C345        C351   1.617       .  S
C345        C349   1.560       .  S
C345        C460   1.528       .  S
C346        H353   1.085       .  S
C346        C347   1.382       .  D
C347        C348   1.491       .  S
C348        C352   1.492       .  S
C348        C350   1.645       .  S
C348        H354   1.092       .  S
C349        H355   1.083       .  S
C349        C350   1.367       .  D
C350        C374   1.615       .  S
C351        H356   1.085       .  S
C351        C352   1.377       .  D
C352        C364   1.615       .  S
C357        C358   1.618       .  S
C357        C363   1.611       .  S
C357        C361   1.560       .  S
C357        C433   1.522       .  S
C358        H365   1.085       .  S
C358        C359   1.376       .  D
C359        C360   1.490       .  S
C359        C371   1.615       .  S
C360        C364   1.488       .  S
C360        C362   1.645       .  S
C360        H366   1.093       .  S
C361        H367   1.084       .  S
C361        C362   1.369       .  D
C363        H368   1.085       .  S
C363        C364   1.377       .  D
C369        C370   1.612       .  S
C369        C375   1.620       .  S
C369        C373   1.560       .  S
C369        C413   1.528       .  S
C370        H377   1.085       .  S
C370        C371   1.376       .  D
C371        C372   1.488       .  S
C372        C376   1.487       .  S
C372        C374   1.643       .  S
C372        H378   1.092       .  S
C373        H379   1.085       .  S
C373        C374   1.369       .  D
C375        H380   1.085       .  S
C375        C376   1.379       .  D
O381       Cu389   1.993       .  S
O381        C391   1.276       .  A
O382       Cu389   1.987       .  S
O382        C392   1.275       .  A
O383       Cu389   2.010       .  S
O383        C393   1.279       .  A
O384       Cu389   2.014       .  S
O384        C394   1.279       .  A
O385       Cu390   2.013       .  S
O385        C394   1.278       .  A
O386       Cu390   2.009       .  S
O386        C393   1.278       .  A
O387       Cu390   2.018       .  S
O387        C392   1.280       .  A
O388       Cu390   2.013       .  S
O388        C391   1.279       .  A
Cu389      Cu390   2.370       .  S
C392        C513   1.481       .  S
C393        C420   1.484       .  S
O395       Cu403   2.017       .  S
O395        C405   1.279       .  A
O396       Cu971   2.011       .  S
O396        C406   1.278       .  A
O397       Cu971   2.010       .  S
O397        C407   1.279       .  A
O398       Cu403   2.003       .  S
O398        C408   1.277       .  A
O399       Cu404   2.017       .  S
O399        C408   1.280       .  A
O400       Cu972   2.015       .  S
O400        C407   1.279       .  A
O401       Cu972   2.007       .  S
O401        C406   1.278       .  A
O402       Cu404   2.004       .  S
O402        C405   1.277       .  A
Cu403       O964   2.024   1_455  S
Cu403       O965   2.009   1_455  S
Cu403      Cu404   2.366       .  S
Cu404       O968   2.023   1_455  S
Cu404       O969   2.015   1_455  S
C405        C440   1.484       .  S
C406        C533   1.487       .  S
C407        C480   1.493       .  S
C408        C500   1.486       .  S
C409        C410   1.403       .  A
C409        C414   1.401       .  A
C409        F427   1.358       .  S
C410        C415   1.481       .  S
C410        C411   1.401       .  A
C411        C412   1.397       .  A
C411        F416   1.358       .  S
C412        C413   1.416       .  A
C412        F428   1.356       .  S
C413        C414   1.414       .  A
C414        F417   1.358       .  S
C415        C418   1.404       .  A
C415        C422   1.404       .  A
C418        C419   1.399       .  A
C418        F423   1.358       .  S
C419        C420   1.409       .  A
C419        F425   1.358       .  S
C420        C421   1.410       .  A
C421        C422   1.400       .  A
C421        F424   1.358       .  S
C422        F426   1.358       .  S
C429        C430   1.402       .  A
C429        C434   1.400       .  A
C429        F447   1.358       .  S
C430        C435   1.475       .  S
C430        C431   1.399       .  A
C431        C432   1.393       .  A
C431        F436   1.358       .  S
C432        C433   1.415       .  A
C432        F448   1.357       .  S
C433        C434   1.414       .  A
C434        F437   1.357       .  S
C435        C438   1.402       .  A
C435        C442   1.403       .  A
C438        C439   1.398       .  A
C438        F443   1.358       .  S
C439        C440   1.411       .  A
C439        F445   1.358       .  S
C440        C441   1.410       .  A
C441        C442   1.399       .  A
C441        F444   1.358       .  S
C442        F446   1.358       .  S
C449        C450   1.404       .  A
C449        F467   1.358       .  S
C450        C455   1.477       .  S
C450        C451   1.401       .  A
C451        C452   1.396       .  A
C451        F456   1.358       .  S
C452        C453   1.412       .  A
C452        F468   1.358       .  S
C454        F457   1.358       .  S
C455        C458   1.399       .  A
C455        C462   1.402       .  A
C458        C459   1.396       .  A
C458        F463   1.358       .  S
C459        C460   1.416       .  A
C459        F465   1.357       .  S
C460        C461   1.415       .  A
C461        C462   1.401       .  A
C461        F464   1.356       .  S
C462        F466   1.358       .  S
C469        C470   1.406       .  A
C469        C474   1.405       .  A
C469        F487   1.358       .  S
C470        C475   1.489       .  S
C470        C471   1.403       .  A
C471        C472   1.398       .  A
C471        F476   1.358       .  S
C472        C473   1.416       .  A
C472        F488   1.357       .  S
C473        C474   1.415       .  A
C474        F477   1.357       .  S
C475        C478   1.405       .  A
C475        C482   1.406       .  A
C478        C479   1.398       .  A
C478        F483   1.358       .  S
C479        C480   1.412       .  A
C479        F485   1.358       .  S
C480        C481   1.413       .  A
C481        C482   1.404       .  A
C481        F484   1.358       .  S
C482        F486   1.358       .  S
C489        C490   1.399       .  A
C489        C494   1.397       .  A
C489        F507   1.358       .  S
C490        C495   1.479       .  S
C490        C491   1.403       .  A
C491        C492   1.401       .  A
C491        F496   1.358       .  S
C492        C493   1.414       .  A
C492        F508   1.358       .  S
C493        C494   1.418       .  A
C494        F497   1.356       .  S
C495        C498   1.403       .  A
C495        C502   1.403       .  A
C498        C499   1.399       .  A
C498        F503   1.358       .  S
C499        C500   1.409       .  A
C499        F505   1.358       .  S
C500        C501   1.412       .  A
C501        C502   1.400       .  A
C501        F504   1.358       .  S
C502        F506   1.358       .  S
C509        C510   1.402       .  A
C509        C514   1.395       .  A
C509        F527   1.358       .  S
C510        C515   1.473       .  S
C510        C511   1.403       .  A
C511        C512   1.398   1_556  A
C511        F516   1.358       .  S
C512        C513   1.410       .  A
C512        F528   1.358       .  S
C513        C514   1.411   1_554  A
C514        F517   1.358       .  S
C515        C518   1.399       .  A
C515        C522   1.401       .  A
C518        C519   1.392       .  A
C518        F523   1.358       .  S
C519        C520   1.411       .  A
C519        F525   1.358       .  S
C520        C521   1.419       .  A
C521        C522   1.399       .  A
C521        F524   1.352       .  S
C522        F526   1.358       .  S
C529        C530   1.402       .  A
C529        C534   1.398       .  A
C529        F547   1.358       .  S
C530        C535   1.478       .  S
C530        C531   1.403       .  A
C531        C532   1.400       .  A
C531        F536   1.358       .  S
C532        C533   1.412       .  A
C532        F548   1.358       .  S
C533        C534   1.412       .  A
C534        F537   1.358       .  S
C535        C538   1.401       .  A
C535        C542   1.400       .  A
C538        C539   1.400       .  A
C538        F543   1.358       .  S
C539        C540   1.417       .  A
C539        F545   1.354       .  S
C540        C541   1.414       .  A
C541        C542   1.398       .  A
C541        F544   1.358       .  S
C542        F546   1.358       .  S
C549        C550   1.403       .  A
C549        C554   1.399       .  A
C549        F567   1.358       .  S
C550        C555   1.480       .  S
C550        C551   1.404       .  A
C551        C552   1.401   1_556  A
C551        F556   1.358       .  S
C552        C553   1.411       .  A
C552        F568   1.358       .  S
C553        C554   1.410   1_554  A
C554        F557   1.358   1_565  S
C555        C558   1.402       .  A
C555        C562   1.401       .  A
C558        C559   1.400       .  A
C558        F563   1.358       .  S
C559        C560   1.416       .  A
C559        F565   1.358       .  S
C560        C561   1.414       .  A
C561        C562   1.400       .  A
C561        F564   1.356       .  S
C562        F566   1.358       .  S
C569        C570   1.621       .  S
C569        C575   1.616       .  S
C569        C573   1.553       .  S
C569        C844   1.535       .  S
C570        H577   1.085       .  S
C570        C571   1.382       .  D
C571        C572   1.492       .  S
C571        C607   1.621       .  S
C572        C576   1.490       .  S
C572        C574   1.642       .  S
C572        H578   1.092       .  S
C573        H579   1.084       .  S
C573        C574   1.363       .  D
C574        C598   1.608       .  S
C575        H580   1.085       .  S
C575        C576   1.384       .  D
C576        C588   1.624       .  S
C581        C582   1.614       .  S
C581        C587   1.620       .  S
C581        C585   1.564       .  S
C581        C824   1.534       .  S
C582        H589   1.085       .  S
C582        C583   1.380       .  D
C583        C584   1.492       .  S
C583        C595   1.621       .  S
C584        C588   1.491       .  S
C584        C586   1.643       .  S
C584        H590   1.093       .  S
C585        H591   1.080       .  S
C585        C586   1.367       .  D
C586        C610   1.617       .  S
C587        H592   1.085       .  S
C587        C588   1.382       .  D
C593        C594   1.614       .  S
C593        C599   1.616       .  S
C593        C597   1.556       .  S
C593        C804   1.522       .  S
C594        H601   1.085       .  S
C594        C595   1.382       .  D
C595        C596   1.490       .  S
C596        C600   1.491       .  S
C596        C598   1.643       .  S
C596        H602   1.093       .  S
C597        H603   1.079       .  S
C597        C598   1.362       .  D
C599        H604   1.085       .  S
C599        C600   1.377       .  D
C600        C612   1.616       .  S
C605        C606   1.615       .  S
C605        C611   1.617       .  S
C605        C609   1.561       .  S
C605        C777   1.529       .  S
C606        H613   1.085       .  S
C606        C607   1.380       .  D
C607        C608   1.489       .  S
C608        C612   1.491       .  S
C608        C610   1.643       .  S
C608        H614   1.094       .  S
C609        H615   1.084       .  S
C609        C610   1.369       .  D
C611        H616   1.085       .  S
C611        C612   1.378       .  D
C617        C618   1.618       .  S
C617        C623   1.615       .  S
C617        C621   1.563       .  S
C617        C757   1.534       .  S
C618        H625   1.085       .  S
C618        C619   1.385       .  D
C619        C620   1.490       .  S
C619        C631   1.624       .  S
C620        C624   1.491       .  S
C620        C622   1.641       .  S
C620        H626   1.092       .  S
C621        H627   1.077       .  S
C621        C622   1.364       .  D
C622        C646   1.613       .  S
C623        H628   1.085       .  S
C623        C624   1.377       .  D
C624        C660   1.617       .  S
C629        C630   1.615       .  S
C629        C635   1.618       .  S
C629        C633   1.564       .  S
C629        C744   1.531       .  S
C630        H637   1.085       .  S
C630        C631   1.381       .  D
C631        C632   1.492       .  S
C632        C636   1.492       .  S
C632        C634   1.644       .  S
C632        H638   1.092       .  S
C633        H639   1.084       .  S
C633        C634   1.369       .  D
C634        C658   1.619       .  S
C635        H640   1.085       .  S
C635        C636   1.378       .  D
C636        C648   1.618       .  S
C641        C642   1.619       .  S
C641        C647   1.612       .  S
C641        C645   1.558       .  S
C641        C717   1.527       .  S
C642        H649   1.085       .  S
C642        C643   1.380       .  D
C643        C644   1.491       .  S
C643        C655   1.618       .  S
C644        C648   1.489       .  S
C644        C646   1.643       .  S
C644        H650   1.092       .  S
C645        H651   1.084       .  S
C645        C646   1.366       .  D
C647        H652   1.085       .  S
C647        C648   1.379       .  D
C653        C654   1.614       .  S
C653        C659   1.619       .  S
C653        C657   1.563       .  S
C653        C697   1.531       .  S
C654        H661   1.085       .  S
C654        C655   1.378       .  D
C655        C656   1.489       .  S
C656        C660   1.490       .  S
C656        C658   1.642       .  S
C656        H662   1.093       .  S
C657        H663   1.085       .  S
C657        C658   1.370       .  D
C659        H664   1.085       .  S
C659        C660   1.379       .  D
O665       Cu673   1.997       .  S
O665        C675   1.277       .  A
O666       Cu673   1.993       .  S
O666        C676   1.276       .  A
O667       Cu673   2.021       .  S
O667        C677   1.279       .  A
O668       Cu673   2.025       .  S
O668        C678   1.280       .  A
O669       Cu674   2.024       .  S
O669        C678   1.279       .  A
O670       Cu674   2.017       .  S
O670        C677   1.279       .  A
O671       Cu674   2.006       .  S
O671        C676   1.278       .  A
O672       Cu674   1.998       .  S
O672        C675   1.277       .  A
Cu673      Cu674   2.367       .  S
C675       C1021   1.481   1_545  S
C676        C797   1.483       .  S
C677        C704   1.490       .  S
C678       C1121   1.492   1_545  S
O679       Cu687   2.006       .  S
O679        C689   1.277       .  A
O680        C690   1.280       .  A
O681        C691   1.277       .  A
O682       Cu687   2.006       .  S
O682        C692   1.277       .  A
O683       Cu688   2.016       .  S
O683        C692   1.279       .  A
O684        C691   1.279       .  A
O685        C690   1.278       .  A
O686       Cu688   2.015       .  S
O686        C689   1.279       .  A
Cu687      Cu688   2.365       .  S
C689        C724   1.486       .  S
C690        C817   1.494       .  S
C691        C764   1.490       .  S
C692        C784   1.487       .  S
C693        C694   1.403       .  A
C693        C698   1.401       .  A
C693        F711   1.357       .  S
C694        C699   1.485       .  S
C694        C695   1.402       .  A
C695        C696   1.401       .  A
C695        F700   1.358       .  S
C696        C697   1.417       .  A
C696        F712   1.356       .  S
C697        C698   1.414       .  A
C698        F701   1.357       .  S
C699        C702   1.405       .  A
C699        C706   1.405       .  A
C702        C703   1.402       .  A
C702        F707   1.358       .  S
C703        C704   1.411       .  A
C703        F709   1.358       .  S
C704        C705   1.411       .  A
C705        C706   1.402       .  A
C705        F708   1.358       .  S
C706        F710   1.358       .  S
C713        C714   1.402       .  A
C713        C718   1.400       .  A
C713        F731   1.358       .  S
C714        C719   1.480       .  S
C714        C715   1.401       .  A
C715        C716   1.398       .  A
C715        F720   1.358       .  S
C716        C717   1.415       .  A
C716        F732   1.357       .  S
C717        C718   1.415       .  A
C718        F721   1.357       .  S
C719        C722   1.404       .  A
C719        C726   1.404       .  A
C722        C723   1.398       .  A
C722        F727   1.358       .  S
C723        C724   1.410       .  A
C723        F729   1.358       .  S
C724        C725   1.412       .  A
C725        C726   1.400       .  A
C725        F728   1.358       .  S
C726        F730   1.358       .  S
C733        C734   1.405       .  A
C733       C1022   1.400       .  A
C733        F751   1.358       .  S
C734        C739   1.485       .  S
C734        C735   1.404       .  A
C735        C736   1.399       .  A
C735        F740   1.358       .  S
C736        C737   1.412       .  A
C736        F752   1.358       .  S
C737        C959   1.489       .  S
C737       C1022   1.412       .  A
C738       C1017   1.396       .  A
C738       C1021   1.411       .  A
C738        F741   1.358       .  S
C739        C742   1.402       .  A
C739        C746   1.404       .  A
C742        C743   1.399       .  A
C742        F747   1.358       .  S
C743        C744   1.417       .  A
C743        F749   1.357       .  S
C744        C745   1.414       .  A
C745        C746   1.401       .  A
C745        F748   1.356       .  S
C746        F750   1.358       .  S
C753        C754   1.399       .  A
C753        C758   1.400       .  A
C753        F771   1.358       .  S
C754        C759   1.478       .  S
C754        C755   1.400       .  A
C755        C756   1.401       .  A
C755        F760   1.358       .  S
C756        C757   1.415       .  A
C756        F772   1.358       .  S
C757        C758   1.418       .  A
C758        F761   1.352       .  S
C759        C762   1.402       .  A
C759        C766   1.402       .  A
C762        C763   1.400       .  A
C762        F767   1.358       .  S
C763        C764   1.413       .  A
C763        F769   1.358       .  S
C764        C765   1.412       .  A
C765        C766   1.401       .  A
C765        F768   1.357       .  S
C766        F770   1.358       .  S
C773        C774   1.401       .  A
C773        C778   1.400       .  A
C773        F791   1.358       .  S
C774        C779   1.481       .  S
C774        C775   1.402       .  A
C775        C776   1.398       .  A
C775        F780   1.358       .  S
C776        C777   1.413       .  A
C776        F792   1.357       .  S
C777        C778   1.418       .  A
C778        F781   1.356       .  S
C779        C782   1.404       .  A
C779        C786   1.403       .  A
C782        C783   1.399       .  A
C782        F787   1.358       .  S
C783        C784   1.410       .  A
C783        F789   1.358       .  S
C784        C785   1.413       .  A
C785        C786   1.401       .  A
C785        F788   1.358       .  S
C786        F790   1.358       .  S
C793        C794   1.399       .  A
C793        C798   1.396   1_556  A
C793        F811   1.358       .  S
C794        C799   1.468       .  S
C794        C795   1.400       .  A
C795        C796   1.396   1_556  A
C795        F800   1.358       .  S
C796        C797   1.412       .  A
C796        F812   1.358       .  S
C797        C798   1.414       .  A
C798        F801   1.358       .  S
C799        C802   1.397       .  A
C799        C806   1.399       .  A
C802        C803   1.392       .  A
C802        F807   1.358       .  S
C803        C804   1.411       .  A
C803        F809   1.358       .  S
C804        C805   1.417       .  A
C805        C806   1.399       .  A
C805        F808   1.354       .  S
C806        F810   1.358       .  S
C813        C814   1.405       .  A
C813        C818   1.402       .  A
C813        F831   1.358       .  S
C814        C819   1.489       .  S
C814        C815   1.405       .  A
C815        C816   1.401       .  A
C815        F820   1.358       .  S
C816        C817   1.412       .  A
C816        F832   1.357       .  S
C817        C818   1.413       .  A
C818        F821   1.358       .  S
C819        C822   1.405       .  A
C819        C826   1.403       .  A
C822        C823   1.404       .  A
C822        F827   1.358       .  S
C823        C824   1.417       .  A
C823        F829   1.354       .  S
C824        C825   1.413       .  A
C825        C826   1.399       .  A
C825        F828   1.358       .  S
C826        F830   1.358       .  S
C833        C834   1.404       .  A
C833        C838   1.401       .  A
C833        F851   1.358       .  S
C834        C839   1.486       .  S
C834        C835   1.405       .  A
C835        C836   1.402   1_556  A
C835        F840   1.358       .  S
C836        C837   1.411       .  A
C836        F852   1.358       .  S
C837        C962   1.491       .  S
C837        C838   1.411   1_554  A
C838        F841   1.358       .  S
C839        C842   1.403       .  A
C839        C846   1.402       .  A
C842        C843   1.402       .  A
C842        F847   1.358       .  S
C843        C844   1.417       .  A
C843        F849   1.358       .  S
C844        C845   1.415       .  A
C845        C846   1.401       .  A
C845        F848   1.356       .  S
C846        F850   1.358       .  S
C853        C854   1.621       .  S
C853        C859   1.620       .  S
C853        C857   1.553       .  S
C853       C1128   1.538       .  S
C854        H861   1.085       .  S
C854        C855   1.382       .  D
C855        C856   1.495       .  S
C855        C891   1.623       .  S
C856        C860   1.490       .  S
C856        C858   1.643       .  S
C856        H862   1.093       .  S
C857        H863   1.085       .  S
C857        C858   1.364       .  D
C858        C882   1.610       .  S
C859        H864   1.085       .  S
C859        C860   1.385       .  D
C860        C872   1.628       .  S
C865        C866   1.613       .  S
C865        C871   1.623       .  S
C865        C869   1.558       .  S
C865       C1108   1.536       .  S
C866        H873   1.085       .  S
C866        C867   1.381       .  D
C867        C868   1.494       .  S
C867        C879   1.622       .  S
C868        C872   1.492       .  S
C868        C870   1.643       .  S
C868        H874   1.093       .  S
C869        H875   1.084       .  S
C869        C870   1.364       .  D
C870        C894   1.612       .  S
C871        H876   1.085       .  S
C871        C872   1.387       .  D
C877        C878   1.619       .  S
C877        C883   1.610       .  S
C877        C881   1.558       .  S
C877       C1088   1.524       .  S
C878        H885   1.085       .  S
C878        C879   1.384       .  D
C879        C880   1.490       .  S
C880        C884   1.489       .  S
C880        C882   1.643       .  S
C880        H886   1.094       .  S
C881        H887   1.079       .  S
C881        C882   1.362       .  D
C883        H888   1.085       .  S
C883        C884   1.375       .  D
C884        C896   1.612       .  S
C889        C890   1.616       .  S
C889        C895   1.615       .  S
C889        C893   1.556       .  S
C889       C1061   1.525       .  S
C890        H897   1.085       .  S
C890        C891   1.382       .  D
C891        C892   1.487       .  S
C892        C896   1.492       .  S
C892        C894   1.643       .  S
C892        H898   1.095       .  S
C893        H899   1.084       .  S
C893        C894   1.365       .  D
C895        H900   1.085       .  S
C895        C896   1.375       .  D
C901        C902   1.615       .  S
C901        C907   1.616       .  S
C901        C905   1.567       .  S
C901       C1041   1.532       .  S
C902        H909   1.085       .  S
C902        C903   1.381       .  D
C903        C904   1.490       .  S
C903        C915   1.620       .  S
C904        C908   1.491       .  S
C904        C906   1.643       .  S
C904        H910   1.094       .  S
C905        H911   1.079       .  S
C905        C906   1.367       .  D
C906        C930   1.620       .  S
C907        H912   1.085       .  S
C907        C908   1.378       .  D
C908        C944   1.618       .  S
C913        C914   1.613       .  S
C913        C919   1.616       .  S
C913        C917   1.557       .  S
C913       C1028   1.520       .  S
C914        H921   1.085       .  S
C914        C915   1.379       .  D
C915        C916   1.491       .  S
C916        C920   1.491       .  S
C916        C918   1.645       .  S
C916        H922   1.093       .  S
C917        H923   1.084       .  S
C917        C918   1.365       .  D
C918        C942   1.612       .  S
C919        H924   1.085       .  S
C919        C920   1.377       .  D
C920        C932   1.613       .  S
C925        C926   1.619       .  S
C925        C931   1.610       .  S
C925        C929   1.561       .  S
C925       C1001   1.523       .  S
C926        H933   1.085       .  S
C926        C927   1.380       .  D
C927        C928   1.490       .  S
C927        C939   1.618       .  S
C928        C932   1.490       .  S
C928        C930   1.645       .  S
C928        H934   1.094       .  S
C929        H935   1.084       .  S
C929        C930   1.370       .  D
C931        H936   1.085       .  S
C931        C932   1.374       .  D
C937        C938   1.612       .  S
C937        C943   1.618       .  S
C937        C941   1.559       .  S
C937        C981   1.524       .  S
C938        H945   1.085       .  S
C938        C939   1.379       .  D
C939        C940   1.491       .  S
C940        C944   1.491       .  S
C940        C942   1.643       .  S
C940        H946   1.093       .  S
C941        H947   1.082       .  S
C941        C942   1.364       .  D
C943        H948   1.085       .  S
C943        C944   1.380       .  D
O949       Cu957   2.010       .  S
O949        C959   1.278       .  A
O950       Cu957   2.010       .  S
O950        C960   1.278       .  A
O951       Cu957   2.010       .  S
O951        C961   1.278       .  A
O952       Cu957   2.016       .  S
O952        C962   1.279       .  A
O953       Cu958   2.019       .  S
O953        C962   1.279       .  A
O954       Cu958   2.014       .  S
O954        C961   1.279       .  A
O955       Cu958   2.010       .  S
O955        C960   1.278       .  A
O956       Cu958   2.005       .  S
O956        C959   1.278       .  A
Cu957      Cu958   2.365       .  S
C960       C1081   1.489       .  S
C961        C988   1.491       .  S
O963       Cu971   2.003       .  S
O963        C973   1.278       .  A
O964        C974   1.280       .  A
O965        C975   1.278       .  A
O966       Cu971   2.008       .  S
O966        C976   1.277       .  A
O967       Cu972   2.010       .  S
O967        C976   1.279       .  A
O968        C975   1.279       .  A
O969        C974   1.279       .  A
O970       Cu972   2.004       .  S
O970        C973   1.277       .  A
Cu971      Cu972   2.367       .  S
C973       C1008   1.480       .  S
C974       C1101   1.497       .  S
C975       C1048   1.488       .  S
C976       C1068   1.484       .  S
C977        C978   1.404       .  A
C977        C982   1.398       .  A
C977        F995   1.358       .  S
C978        C983   1.483       .  S
C978        C979   1.403       .  A
C979        C980   1.397       .  A
C979        F984   1.358       .  S
C980        C981   1.413       .  A
C980        F996   1.358       .  S
C981        C982   1.415       .  A
C982        F985   1.356       .  S
C983        C986   1.404       .  A
C983        C990   1.404       .  A
C986        C987   1.399       .  A
C986        F991   1.358       .  S
C987        C988   1.413       .  A
C987        F993   1.358       .  S
C988        C989   1.412       .  A
C989        C990   1.399       .  A
C989        F992   1.358       .  S
C990        F994   1.358       .  S
C997        C998   1.402       .  A
C997       C1002   1.399       .  A
C997       F1015   1.358       .  S
C998       C1003   1.476       .  S
C998        C999   1.401       .  A
C999       C1000   1.395       .  A
C999       F1004   1.359       .  S
C1000      C1001   1.415       .  A
C1000      F1016   1.356       .  S
C1001      C1002   1.414       .  A
C1002      F1005   1.357       .  S
C1003      C1006   1.404       .  A
C1003      C1010   1.402       .  A
C1006      C1007   1.400       .  A
C1006      F1011   1.358       .  S
C1007      C1008   1.410       .  A
C1007      F1013   1.358       .  S
C1008      C1009   1.409       .  A
C1009      C1010   1.395       .  A
C1009      F1012   1.358       .  S
C1010      F1014   1.358       .  S
C1017      C1018   1.403       .  A
C1017      F1035   1.358       .  S
C1018      C1023   1.474       .  S
C1018      C1019   1.402       .  A
C1019      C1020   1.395       .  A
C1019      F1024   1.358       .  S
C1020      C1021   1.410       .  A
C1020      F1036   1.358       .  S
C1022      F1025   1.358       .  S
C1023      C1026   1.401       .  A
C1023      C1030   1.402       .  A
C1026      C1027   1.394       .  A
C1026      F1031   1.358       .  S
C1027      C1028   1.414       .  A
C1027      F1033   1.357       .  S
C1028      C1029   1.414       .  A
C1029      C1030   1.396       .  A
C1029      F1032   1.357       .  S
C1030      F1034   1.358       .  S
C1037      C1038   1.402       .  A
C1037      C1042   1.400       .  A
C1037      F1055   1.358       .  S
C1038      C1043   1.482       .  S
C1038      C1039   1.401       .  A
C1039      C1040   1.401       .  A
C1039      F1044   1.358       .  S
C1040      C1041   1.416       .  A
C1040      F1056   1.359       .  S
C1041      C1042   1.415       .  A
C1042      F1045   1.352       .  S
C1043      C1046   1.403       .  A
C1043      C1050   1.405       .  A
C1046      C1047   1.398       .  A
C1046      F1051   1.358       .  S
C1047      C1048   1.410       .  A
C1047      F1053   1.358       .  S
C1048      C1049   1.411       .  A
C1049      C1050   1.404       .  A
C1049      F1052   1.358       .  S
C1050      F1054   1.358       .  S
C1057      C1058   1.400       .  A
C1057      C1062   1.397       .  A
C1057      F1075   1.358       .  S
C1058      C1063   1.477       .  S
C1058      C1059   1.402       .  A
C1059      C1060   1.398       .  A
C1059      F1064   1.358       .  S
C1060      C1061   1.413       .  A
C1060      F1076   1.358       .  S
C1061      C1062   1.417       .  A
C1062      F1065   1.357       .  S
C1063      C1066   1.402       .  A
C1063      C1070   1.404       .  A
C1066      C1067   1.395       .  A
C1066      F1071   1.358       .  S
C1067      C1068   1.408       .  A
C1067      F1073   1.357       .  S
C1068      C1069   1.413       .  A
C1069      C1070   1.402       .  A
C1069      F1072   1.358       .  S
C1070      F1074   1.358       .  S
C1077      C1078   1.402       .  A
C1077      C1082   1.397       .  A
C1077      F1095   1.358       .  S
C1078      C1083   1.477       .  S
C1078      C1079   1.403       .  A
C1079      C1080   1.399       .  A
C1079      F1084   1.358       .  S
C1080      C1081   1.413   1_556  A
C1080      F1096   1.358   1_556  S
C1081      C1082   1.412   1_554  A
C1082      F1085   1.357       .  S
C1083      C1086   1.401       .  A
C1083      C1090   1.401       .  A
C1086      C1087   1.396       .  A
C1086      F1091   1.358       .  S
C1087      C1088   1.412       .  A
C1087      F1093   1.358       .  S
C1088      C1089   1.417       .  A
C1089      C1090   1.397       .  A
C1089      F1092   1.353       .  S
C1090      F1094   1.358       .  S
C1097      C1098   1.406       .  A
C1097      C1102   1.402       .  A
C1097      F1115   1.358       .  S
C1098      C1103   1.493       .  S
C1098      C1099   1.407       .  A
C1099      C1100   1.403       .  A
C1099      F1104   1.358       .  S
C1100      C1101   1.412       .  A
C1100      F1116   1.358       .  S
C1101      C1102   1.413       .  A
C1102      F1105   1.358       .  S
C1103      C1106   1.404       .  A
C1103      C1110   1.406       .  A
C1106      C1107   1.403       .  A
C1106      F1111   1.358       .  S
C1107      C1108   1.417       .  A
C1107      F1113   1.357       .  S
C1108      C1109   1.414       .  A
C1109      C1110   1.403       .  A
C1109      F1112   1.357       .  S
C1110      F1114   1.358       .  S
C1117      C1118   1.405       .  A
C1117      C1122   1.402       .  A
C1117      F1135   1.358       .  S
C1118      C1123   1.489       .  S
C1118      C1119   1.406       .  A
C1119      C1120   1.405   1_556  A
C1119      F1124   1.358       .  S
C1120      C1121   1.412       .  A
C1120      F1136   1.358       .  S
C1121      C1122   1.410   1_554  A
C1122      F1125   1.358   1_565  S
C1123      C1126   1.403       .  A
C1123      C1130   1.403       .  A
C1126      C1127   1.402       .  A
C1126      F1131   1.358       .  S
C1127      C1128   1.416       .  A
C1127      F1133   1.358       .  S
C1128      C1129   1.418       .  A
C1129      C1130   1.403       .  A
C1129      F1132   1.355       .  S
C1130      F1134   1.358       .  S
