geometry optimzed in LAMMPS
_audit_creation_date              2020-12-01 
_audit_creation_method            'lammps2cif' 
_symmetry_space_group_name_H-M    'P1' 
_symmetry_Int_Tables_number       1 
_symmetry_cell_setting            triclinic 
loop_ 
_symmetry_equiv_pos_as_xyz 
  x,y,z 
_cell_length_a                    28.86046863 
_cell_length_b                    30.594005940407893 
_cell_length_c                    25.670592756004854 
_cell_angle_alpha                 89.91133619670906 
_cell_angle_beta                  90.73101375600716 
_cell_angle_gamma                 88.67008651406175 
loop_ 
_atom_site_label 
_atom_site_type_symbol 
_atom_site_fract_x 
_atom_site_fract_y 
_atom_site_fract_z 
_atom_site_charge 
O1          O  0.45736635  0.29277014  0.44469224    -0.72500
O2          O  0.46032187  0.20198053  0.54691123    -0.72700
O3          O  0.45560893  0.29004327  0.54896103    -0.72500
O4          O  0.46172416  0.20460590  0.44234248    -0.72500
O5          O  0.03633952  0.20754241  0.44341291    -0.72500
O6          O  0.03079953  0.29118671  0.55260721    -0.72500
O7          O  0.03551878  0.20330941  0.54817478    -0.72500
O8          O  0.03252592  0.29457288  0.44890102    -0.72600
V9          V  0.46014226  0.24732171  0.49579618     1.35200
V10         V  0.03230317  0.24898595  0.49829920     1.35200
C11         C  0.49476761  0.30971218  0.43046060     0.76800
C12         C  0.99866140  0.18695811  0.56454634     0.76800
C13         C  0.99206709  0.30591121  0.56812086     0.76700
C14         C  0.50000385  0.19173277  0.42381476     0.76700
C15         C  0.49949891  0.45968964  0.29017774     0.85800
C16         C  0.45827356  0.46372339  0.25240002    -0.54400
C17         C  0.45799558  0.00015022  0.22198356     0.08700
C18         C  0.49921215  0.03058285  0.23335684     0.19700
C19         C  0.04182469  0.46409036  0.25567672    -0.55100
C20         C  0.04466854  0.00239958  0.22797737     0.08800
C21         C  0.49570207  0.00268460  0.32147641    -0.54700
C22         C  0.99664845  0.03968103  0.29193350     0.09400
H23         H  0.43036972  0.44068199  0.25079539     0.13900
H24         H  0.49566149  0.06020234  0.20945685    -0.00300
H25         H  0.06607091  0.43665995  0.25240026     0.14200
H26         H  0.49285947  0.00406477  0.36357136     0.14000
C27         C  0.99284788  0.45602008  0.70866320     0.85800
C28         C  0.03585871  0.46045266  0.74488407    -0.54400
C29         C  0.03699313  0.99813331  0.77386360     0.08700
C30         C  0.99482768  0.02870986  0.76235181     0.19700
C31         C  0.45142640  0.46265552  0.74365881    -0.55100
C32         C  0.45184709  0.99988281  0.77215014     0.08800
C33         C  0.99431447  0.99788738  0.67556761    -0.54700
C34         C  0.49625677  0.03641033  0.70263102     0.09400
H35         H  0.06414034  0.43674283  0.74643866     0.13900
H36         H  0.99621336  0.05890792  0.78518570    -0.00300
H37         H  0.42452011  0.43859286  0.74743054     0.14200
H38         H  0.99476615  0.99686737  0.63334161     0.14000
O39         O  0.29366977  0.48426366  0.05560171    -0.72500
O40         O  0.20409322  0.47949311  0.94582496    -0.72700
O41         O  0.29663331  0.48034328  0.95117659    -0.72500
O42         O  0.20054803  0.48308485  0.05011201    -0.72500
O43         O  0.20170472  0.05367412  0.05149874    -0.72500
O44         O  0.29222119  0.05093000  0.94443588    -0.72500
O45         O  0.19859212  0.05046727  0.94607234    -0.72500
O46         O  0.29456660  0.05506287  0.04858928    -0.72600
V47         V  0.24870506  0.48317164  0.00067984     1.35200
V48         V  0.24662033  0.05124471  0.99754020     1.35200
C49         C  0.31008735  0.02041846  0.06983297     0.76800
C50         C  0.18560182  0.01428748  0.92788549     0.76800
C51         C  0.31081131  0.01496086  0.93055811     0.76700
C52         C  0.18589415  0.01856788  0.06962090     0.76700
C53         C  0.10298060  0.02478510  0.90091869    -0.02500
C54         C  0.14851353  0.01271381  0.88778907     0.06600
C55         C  0.15844912  0.49971428  0.83663247    -0.02600
C56         C  0.12273670  0.49833615  0.79864719    -0.02600
C57         C  0.07581826  0.00755741  0.81216183     0.07300
C58         C  0.06684302  0.02291662  0.86358498    -0.02800
Br59       Br  0.00638358  0.04207683  0.88640860    -0.01400
Br60       Br  0.08976119  0.04107874  0.97200674    -0.01500
Br61       Br  0.14023031  0.48786489  0.72735925    -0.01400
Br62       Br  0.22144568  0.48388680  0.81871782    -0.01400
C63         C  0.41929948  0.97841168  0.85804549    -0.02500
C64         C  0.41714946  0.00600056  0.81385290     0.07200
C65         C  0.37830280  0.03396673  0.80623551    -0.02600
C66         C  0.34549420  0.03954140  0.84598973    -0.02600
C67         C  0.34809726  0.01281801  0.89109702     0.07300
C68         C  0.38494352  0.98154041  0.89630985    -0.02800
Br69       Br  0.38992829  0.94259998  0.95582260    -0.01400
Br70       Br  0.46835621  0.93435834  0.86522227    -0.01500
Br71       Br  0.29564446  0.08207900  0.83592425    -0.01400
Br72       Br  0.36489505  0.05744043  0.73779337    -0.01400
C73         C  0.15478355  0.98343018  0.15052187    -0.02500
C74         C  0.15269094  0.01826092  0.11400355     0.07200
C75         C  0.12232237  0.05428367  0.12436557    -0.02600
C76         C  0.09080193  0.05250586  0.16616398    -0.02600
C77         C  0.08722569  0.01358042  0.19604811     0.07300
C78         C  0.12582903  0.98415586  0.19405312    -0.02800
Br79       Br  0.15137511  0.45791190  0.25727459    -0.01400
Br80       Br  0.19893417  0.93494493  0.14515245    -0.01500
Br81       Br  0.06466004  0.10751130  0.19004679    -0.01400
Br82       Br  0.12263518  0.10673150  0.08212742    -0.01400
C83         C  0.37259295  0.00960492  0.19957053    -0.02500
C84         C  0.41963601  0.00981869  0.18383731     0.07200
C85         C  0.42974026  0.01779651  0.13096816    -0.02600
C86         C  0.39360100  0.02518785  0.09451194    -0.02600
C87         C  0.34722808  0.02171526  0.10967893     0.07300
C88         C  0.33675070  0.01627419  0.16250644    -0.02800
Br89       Br  0.27317514  0.02135809  0.18426873    -0.01400
Br90       Br  0.35580409  0.49983868  0.27139106    -0.01500
Br91       Br  0.40755587  0.04134333  0.02389852    -0.01400
Br92       Br  0.49236982  0.01332198  0.10607229    -0.01400
C93         C  0.02695971  0.41790293  0.37226125    -0.02500
C94         C  0.50235489  0.41807071  0.32397831     0.07200
C95         C  0.48315045  0.37798984  0.30734625    -0.02600
C96         C  0.47742247  0.34378239  0.34334113    -0.02600
C97         C  0.49550874  0.34714839  0.39428967     0.07300
C98         C  0.02121179  0.38397134  0.40822670    -0.02800
Br99       Br  0.04806873  0.38888933  0.47744259    -0.01400
Br100      Br  0.07558707  0.45868499  0.38662616    -0.01500
Br101      Br  0.44761366  0.29111507  0.32146753    -0.01400
Br102      Br  0.47591278  0.36449184  0.23404633    -0.01400
C103        C  0.04182936  0.09542029  0.34079052    -0.02500
C104        C  0.00023422  0.08355706  0.31602701     0.07200
C105        C  0.46154199  0.11205819  0.31794645    -0.02600
C106        C  0.46179554  0.14862875  0.35119657    -0.02600
C107        C  0.00193619  0.15785728  0.38171653     0.07300
C108        C  0.04317800  0.13273309  0.37276824    -0.02800
Br109      Br  0.10247208  0.14763289  0.40318804    -0.01400
Br110      Br  0.09768774  0.06098495  0.32956955    -0.01500
Br111      Br  0.40647606  0.18553823  0.35258195    -0.01400
Br112      Br  0.40824457  0.10133892  0.27445181    -0.01400
C113        C  0.01354507  0.33881082  0.65422801    -0.02500
C114        C  0.98926503  0.34189158  0.60643110     0.07200
C115        C  0.46016775  0.37863128  0.59636167    -0.02600
C116        C  0.45790302  0.41326081  0.63224369    -0.02600
C117        C  0.98842951  0.41376556  0.67625651     0.07300
C118        C  0.01116029  0.37353528  0.69028229    -0.02800
Br119      Br  0.02804589  0.35994238  0.76175943    -0.01400
Br120      Br  0.04766219  0.28557394  0.67188322    -0.01500
Br121      Br  0.40835197  0.45663963  0.62312676    -0.01400
Br122      Br  0.42500262  0.38327562  0.53179463    -0.01400
C123        C  0.47869605  0.11876710  0.68631417    -0.02500
C124        C  0.50330027  0.07922536  0.67420202     0.07200
C125        C  0.03225511  0.07931321  0.62973678    -0.02600
C126        C  0.02954642  0.11381315  0.59354423    -0.02600
C127        C  0.50087900  0.15067619  0.60288483     0.07300
C128        C  0.47682722  0.15377106  0.65014637    -0.02800
Br129      Br  0.44241394  0.20704607  0.66592991    -0.01400
Br130      Br  0.45052655  0.12896413  0.75288752    -0.01500
Br131      Br  0.06311839  0.10871982  0.52909933    -0.01400
Br132      Br  0.07975699  0.03455598  0.61955688    -0.01400
O133        O  0.45736605  0.79276994  0.44469194    -0.72500
O134        O  0.46032195  0.70198040  0.54691100    -0.72700
O135        O  0.45560857  0.79004312  0.54896070    -0.72500
O136        O  0.46172428  0.70460570  0.44234228    -0.72500
O137        O  0.03633980  0.70754257  0.44341274    -0.72500
O138        O  0.03079967  0.79118699  0.55260691    -0.72500
O139        O  0.03551915  0.70330972  0.54817462    -0.72500
O140        O  0.03252598  0.79457306  0.44890072    -0.72600
V141        V  0.46014215  0.74732155  0.49579591     1.35200
V142        V  0.03230339  0.74898618  0.49829895     1.35200
C143        C  0.49476725  0.80971217  0.43046038     0.76800
C144        C  0.99866182  0.68695828  0.56454613     0.76800
C145        C  0.99206719  0.80591132  0.56812066     0.76700
C146        C  0.50000404  0.69173275  0.42381456     0.76700
C147        C  0.49949832  0.95968974  0.29017770     0.85800
C148        C  0.45827294  0.96372341  0.25239994    -0.54400
C149        C  0.45799618  0.50015015  0.22198361     0.08700
C150        C  0.49921280  0.53058275  0.23335686     0.19700
C151        C  0.04182421  0.96409073  0.25567666    -0.55100
C152        C  0.04466894  0.50239941  0.22797749     0.08800
C153        C  0.49570276  0.50268451  0.32147643    -0.54700
C154        C  0.99664888  0.53968083  0.29193370     0.09400
H155        H  0.43036928  0.94068214  0.25079530     0.13900
H156        H  0.49566215  0.56020223  0.20945688    -0.00300
H157        H  0.06607123  0.93665966  0.25240015     0.14200
H158        H  0.49286019  0.50406469  0.36357141     0.14000
C159        C  0.99284722  0.95601984  0.70866336     0.85800
C160        C  0.03585792  0.96045237  0.74488433    -0.54400
C161        C  0.03699387  0.49813366  0.77386334     0.08700
C162        C  0.99482836  0.52871012  0.76235162     0.19700
C163        C  0.45142564  0.96265535  0.74365865    -0.55100
C164        C  0.45184784  0.49988301  0.77215023     0.08800
C165        C  0.99431503  0.49788760  0.67556748    -0.54700
C166        C  0.49625749  0.53641046  0.70263100     0.09400
H167        H  0.06413965  0.93674235  0.74643900     0.13900
H168        H  0.99621404  0.55890821  0.78518545    -0.00300
H169        H  0.42451936  0.93859271  0.74743030     0.14200
H170        H  0.99476670  0.49686758  0.63334126     0.14000
O171        O  0.29366902  0.98426397  0.05560195    -0.72500
O172        O  0.20409272  0.97949318  0.94582498    -0.72700
O173        O  0.29663279  0.98034338  0.95117683    -0.72500
O174        O  0.20054732  0.98308513  0.05011193    -0.72500
O175        O  0.20170522  0.55367384  0.05149873    -0.72500
O176        O  0.29222193  0.55092994  0.94443609    -0.72500
O177        O  0.19859287  0.55046721  0.94607229    -0.72500
O178        O  0.29456711  0.55506260  0.04858948    -0.72600
V179        V  0.24870445  0.98317183  0.00067994     1.35200
V180        V  0.24662095  0.55124453  0.99754029     1.35200
C181        C  0.31008800  0.52041815  0.06983292     0.76800
C182        C  0.18560248  0.51428746  0.92788541     0.76800
C183        C  0.31081195  0.51496082  0.93055811     0.76700
C184        C  0.18589473  0.51856758  0.06962094     0.76700
C185        C  0.10298133  0.52478536  0.90091848    -0.02500
C186        C  0.14851423  0.51271393  0.88778892     0.06600
C187        C  0.15844840  0.99971406  0.83663265    -0.02600
C188        C  0.12273594  0.99833576  0.79864743    -0.02600
C189        C  0.07581901  0.50755780  0.81216157     0.07300
C190        C  0.06684378  0.52291702  0.86358473    -0.02800
Br191      Br  0.00638439  0.54207743  0.88640831    -0.01400
Br192      Br  0.08976191  0.54107896  0.97200653    -0.01500
Br193      Br  0.14022952  0.98786425  0.72735951    -0.01400
Br194      Br  0.22144498  0.98388672  0.81871794    -0.01400
C195        C  0.41930034  0.47841197  0.85804568    -0.02500
C196        C  0.41715024  0.50600079  0.81385303     0.07200
C197        C  0.37830347  0.53396683  0.80623558    -0.02600
C198        C  0.34549485  0.53954144  0.84598979    -0.02600
C199        C  0.34809795  0.51281807  0.89109708     0.07300
C200        C  0.38494431  0.48154059  0.89630997    -0.02800
Br201      Br  0.38992904  0.44260012  0.95582269    -0.01400
Br202      Br  0.46835725  0.43435883  0.86522260    -0.01500
Br203      Br  0.29564501  0.58207892  0.83592429    -0.01400
Br204      Br  0.36489564  0.55744038  0.73779339    -0.01400
C205        C  0.15478399  0.48342986  0.15052191    -0.02500
C206        C  0.15269145  0.51826059  0.11400358     0.07200
C207        C  0.12232286  0.55428334  0.12436557    -0.02600
C208        C  0.09080241  0.55250557  0.16616400    -0.02600
C209        C  0.08722611  0.51358014  0.19604816     0.07300
C210        C  0.12582943  0.48415554  0.19405315    -0.02800
Br211      Br  0.15137481  0.95791226  0.25727455    -0.01400
Br212      Br  0.19893460  0.43494460  0.14515255    -0.01500
Br213      Br  0.06466062  0.60751104  0.19004682    -0.01400
Br214      Br  0.12263561  0.60673114  0.08212736    -0.01400
C215        C  0.37259354  0.50960465  0.19957049    -0.02500
C216        C  0.41963662  0.50981860  0.18383732     0.07200
C217        C  0.42974088  0.51779654  0.13096819    -0.02600
C218        C  0.39360161  0.52518776  0.09451195    -0.02600
C219        C  0.34722871  0.52171492  0.10967888     0.07300
C220        C  0.33675130  0.51627381  0.16250636    -0.02800
Br221      Br  0.27317571  0.52135764  0.18426856    -0.01400
Br222      Br  0.35580358  0.99983893  0.27139112    -0.01500
Br223      Br  0.40755644  0.54134352  0.02389860    -0.01400
Br224      Br  0.49237047  0.51332247  0.10607235    -0.01400
C225        C  0.02695956  0.91790319  0.37226119    -0.02500
C226        C  0.50235434  0.91807080  0.32397825     0.07200
C227        C  0.48315000  0.87798989  0.30734612    -0.02600
C228        C  0.47742203  0.84378242  0.34334097    -0.02600
C229        C  0.49550825  0.84714843  0.39428953     0.07300
C230        C  0.02121174  0.88397155  0.40822661    -0.02800
Br231      Br  0.04806885  0.88888946  0.47744243    -0.01400
Br232      Br  0.07558680  0.95868537  0.38662615    -0.01500
Br233      Br  0.44761330  0.79111508  0.32146730    -0.01400
Br234      Br  0.47591238  0.86449191  0.23404620    -0.01400
C235        C  0.04182971  0.59542016  0.34079072    -0.02500
C236        C  0.00023457  0.58355686  0.31602726     0.07200
C237        C  0.46154256  0.61205805  0.31794629    -0.02600
C238        C  0.46179597  0.64862862  0.35119636    -0.02600
C239        C  0.00193653  0.65785730  0.38171644     0.07300
C240        C  0.04317834  0.63273310  0.37276824    -0.02800
Br241      Br  0.10247247  0.64763318  0.40318772    -0.01400
Br242      Br  0.09768809  0.56098480  0.32956991    -0.01500
Br243      Br  0.40647642  0.68553800  0.35258158    -0.01400
Br244      Br  0.40824524  0.60133864  0.27445156    -0.01400
C245        C  0.01354486  0.83881076  0.65422797    -0.02500
C246        C  0.98926500  0.84189161  0.60643095     0.07200
C247        C  0.46016704  0.87863117  0.59636144    -0.02600
C248        C  0.45790232  0.91326072  0.63224345    -0.02600
C249        C  0.98842894  0.91376535  0.67625664     0.07300
C250        C  0.01115980  0.87353509  0.69028238    -0.02800
Br251      Br  0.02804506  0.85994201  0.76175957    -0.01400
Br252      Br  0.04766205  0.78557390  0.67188311    -0.01500
Br253      Br  0.40835136  0.95663961  0.62312640    -0.01400
Br254      Br  0.42500175  0.88327537  0.53179449    -0.01400
C255        C  0.47869655  0.61876715  0.68631403    -0.02500
C256        C  0.50330087  0.57922546  0.67420190     0.07200
C257        C  0.03225572  0.57931347  0.62973665    -0.02600
C258        C  0.02954711  0.61381346  0.59354416    -0.02600
C259        C  0.50087929  0.65067620  0.60288460     0.07300
C260        C  0.47682755  0.65377105  0.65014616    -0.02800
Br261      Br  0.44241401  0.70704593  0.66592961    -0.01400
Br262      Br  0.45052710  0.62896420  0.75288739    -0.01500
Br263      Br  0.06311952  0.60872037  0.52909952    -0.01400
Br264      Br  0.07975758  0.53455622  0.61955677    -0.01400
O265        O  0.95736627  0.29276999  0.44469224    -0.72500
O266        O  0.96032184  0.20198045  0.54691130    -0.72700
O267        O  0.95560877  0.29004318  0.54896102    -0.72500
O268        O  0.96172423  0.20460575  0.44234254    -0.72500
O269        O  0.53633946  0.20754243  0.44341280    -0.72500
O270        O  0.53079970  0.29118673  0.55260712    -0.72500
O271        O  0.53551881  0.20330943  0.54817468    -0.72500
O272        O  0.53252601  0.29457290  0.44890091    -0.72600
V273        V  0.96014221  0.24732160  0.49579621     1.35200
V274        V  0.53230323  0.24898598  0.49829909     1.35200
C275        C  0.99476752  0.30971209  0.43046065     0.76800
C276        C  0.49866142  0.18695816  0.56454625     0.76800
C277        C  0.49206729  0.30591125  0.56812084     0.76700
C278        C  0.00000396  0.19173270  0.42381483     0.76700
C279        C  0.99949887  0.45968956  0.29017783     0.85800
C280        C  0.95827353  0.46372344  0.25240017    -0.54400
C281        C  0.95799573  0.00015020  0.22198368     0.08700
C282        C  0.99921235  0.03058285  0.23335680     0.19700
C283        C  0.54182473  0.46409052  0.25567672    -0.55100
C284        C  0.54466837  0.00239966  0.22797746     0.08800
C285        C  0.99570249  0.00268465  0.32147642    -0.54700
C286        C  0.49664810  0.03968101  0.29193352     0.09400
H287        H  0.93036940  0.44068191  0.25079557     0.13900
H288        H  0.99566164  0.06020220  0.20945682    -0.00300
H289        H  0.56607121  0.43665998  0.25240033     0.14200
H290        H  0.99286004  0.00406485  0.36357147     0.14000
C291        C  0.49284797  0.45601996  0.70866337     0.85800
C292        C  0.53585867  0.46045256  0.74488433    -0.54400
C293        C  0.53699313  0.99813330  0.77386352     0.08700
C294        C  0.49482766  0.02870984  0.76235172     0.19700
C295        C  0.95142638  0.46265558  0.74365877    -0.55100
C296        C  0.95184712  0.99988284  0.77215028     0.08800
C297        C  0.49431448  0.99788738  0.67556749    -0.54700
C298        C  0.99625678  0.03641034  0.70263112     0.09400
H299        H  0.56414047  0.43674256  0.74643902     0.13900
H300        H  0.49621332  0.05890787  0.78518564    -0.00300
H301        H  0.92452010  0.43859289  0.74743054     0.14200
H302        H  0.49476617  0.99686738  0.63334151     0.14000
O303        O  0.79366968  0.48426392  0.05560203    -0.72500
O304        O  0.70409337  0.47949323  0.94582503    -0.72700
O305        O  0.79663348  0.48034345  0.95117688    -0.72500
O306        O  0.70054798  0.48308506  0.05011204    -0.72500
O307        O  0.70170471  0.05367402  0.05149889    -0.72500
O308        O  0.79222121  0.05092992  0.94443606    -0.72500
O309        O  0.69859214  0.05046725  0.94607247    -0.72500
O310        O  0.79456661  0.05506265  0.04858949    -0.72600
V311        V  0.74870511  0.48317183  0.00068001     1.35200
V312        V  0.74662034  0.05124460  0.99754037     1.35200
C313        C  0.81008737  0.02041820  0.06983310     0.76800
C314        C  0.68560177  0.01428749  0.92788558     0.76800
C315        C  0.81081127  0.01496078  0.93055819     0.76700
C316        C  0.68589411  0.01856779  0.06962105     0.76700
C317        C  0.60298053  0.02478500  0.90091872    -0.02500
C318        C  0.64851350  0.01271387  0.88778910     0.06600
C319        C  0.65844911  0.49971434  0.83663261    -0.02600
C320        C  0.62273666  0.49833609  0.79864737    -0.02600
C321        C  0.57581825  0.00755739  0.81216178     0.07300
C322        C  0.56684297  0.02291651  0.86358498    -0.02800
Br323      Br  0.50638346  0.04207652  0.88640859    -0.01400
Br324      Br  0.58976103  0.04107842  0.97200681    -0.01500
Br325      Br  0.64023021  0.48786471  0.72735942    -0.01400
Br326      Br  0.72144570  0.48388709  0.81871785    -0.01400
C327        C  0.91929958  0.97841179  0.85804570    -0.02500
C328        C  0.91714950  0.00600061  0.81385306     0.07200
C329        C  0.87830278  0.03396669  0.80623562    -0.02600
C330        C  0.84549419  0.03954137  0.84598984    -0.02600
C331        C  0.84809724  0.01281797  0.89109712     0.07300
C332        C  0.88494354  0.98154043  0.89630999    -0.02800
Br333      Br  0.88992821  0.94259990  0.95582266    -0.01400
Br334      Br  0.96835645  0.93435862  0.86522263    -0.01500
Br335      Br  0.79564451  0.08207902  0.83592437    -0.01400
Br336      Br  0.86489493  0.05744017  0.73779338    -0.01400
C337        C  0.65478344  0.98343018  0.15052206    -0.02500
C338        C  0.65269086  0.01826086  0.11400368     0.07200
C339        C  0.62232227  0.05428363  0.12436561    -0.02600
C340        C  0.59080180  0.05250587  0.16616401    -0.02600
C341        C  0.58722555  0.01358047  0.19604822     0.07300
C342        C  0.62582890  0.98415593  0.19405330    -0.02800
Br343      Br  0.65137524  0.45791224  0.25727477    -0.01400
Br344      Br  0.69893402  0.93494490  0.14515272    -0.01500
Br345      Br  0.56465990  0.10751133  0.19004672    -0.01400
Br346      Br  0.62263503  0.10673137  0.08212731    -0.01400
C347        C  0.87259308  0.00960486  0.19957068    -0.02500
C348        C  0.91963613  0.00981858  0.18383742     0.07200
C349        C  0.92974034  0.01779623  0.13096822    -0.02600
C350        C  0.89360105  0.02518749  0.09451202    -0.02600
C351        C  0.84722813  0.02171493  0.10967904     0.07300
C352        C  0.83675080  0.01627399  0.16250659    -0.02800
Br353      Br  0.77317526  0.02135802  0.18426893    -0.01400
Br354      Br  0.85580412  0.49983898  0.27139136    -0.01500
Br355      Br  0.90755586  0.04134301  0.02389860    -0.01400
Br356      Br  0.99236988  0.01332165  0.10607228    -0.01400
C357        C  0.52695968  0.41790309  0.37226126    -0.02500
C358        C  0.00235484  0.41807060  0.32397835     0.07200
C359        C  0.98315024  0.37798978  0.30734634    -0.02600
C360        C  0.97742224  0.34378235  0.34334124    -0.02600
C361        C  0.99550863  0.34714830  0.39428973     0.07300
C362        C  0.52121182  0.38397146  0.40822669    -0.02800
Br363      Br  0.54806885  0.38888939  0.47744254    -0.01400
Br364      Br  0.57558691  0.45868526  0.38662627    -0.01500
Br365      Br  0.94761317  0.29111514  0.32146774    -0.01400
Br366      Br  0.97591231  0.36449180  0.23404645    -0.01400
C367        C  0.54182905  0.09542022  0.34079053    -0.02500
C368        C  0.50023387  0.08355701  0.31602710     0.07200
C369        C  0.96154234  0.11205824  0.31794629    -0.02600
C370        C  0.96179580  0.14862874  0.35119649    -0.02600
C371        C  0.50193598  0.15785729  0.38171653     0.07300
C372        C  0.54317774  0.13273302  0.37276825    -0.02800
Br373      Br  0.60247186  0.14763270  0.40318808    -0.01400
Br374      Br  0.59768741  0.06098489  0.32956946    -0.01500
Br375      Br  0.90647625  0.18553813  0.35258190    -0.01400
Br376      Br  0.90824504  0.10133904  0.27445144    -0.01400
C377        C  0.51354530  0.33881076  0.65422804    -0.02500
C378        C  0.48926527  0.34189158  0.60643112     0.07200
C379        C  0.96016754  0.37863129  0.59636157    -0.02600
C380        C  0.95790289  0.41326090  0.63224350    -0.02600
C381        C  0.48842964  0.41376544  0.67625668     0.07300
C382        C  0.51116049  0.37353517  0.69028239    -0.02800
Br383      Br  0.52804609  0.35994218  0.76175951    -0.01400
Br384      Br  0.54766241  0.28557385  0.67188317    -0.01500
Br385      Br  0.90835193  0.45663979  0.62312642    -0.01400
Br386      Br  0.92500235  0.38327550  0.53179456    -0.01400
C387        C  0.97869604  0.11876708  0.68631426    -0.02500
C388        C  0.00330029  0.07922535  0.67420212     0.07200
C389        C  0.53225509  0.07931322  0.62973668    -0.02600
C390        C  0.52954645  0.11381319  0.59354416    -0.02600
C391        C  0.00087900  0.15067616  0.60288492     0.07300
C392        C  0.97682724  0.15377104  0.65014648    -0.02800
Br393      Br  0.94241393  0.20704604  0.66592999    -0.01400
Br394      Br  0.95052633  0.12896403  0.75288751    -0.01500
Br395      Br  0.56311861  0.10871996  0.52909939    -0.01400
Br396      Br  0.57975696  0.03455597  0.61955677    -0.01400
O397        O  0.95736632  0.79277012  0.44469217    -0.72500
O398        O  0.96032222  0.70198046  0.54691103    -0.72700
O399        O  0.95560891  0.79004316  0.54896090    -0.72500
O400        O  0.96172452  0.70460588  0.44234228    -0.72500
O401        O  0.53633956  0.70754260  0.44341257    -0.72500
O402        O  0.53079932  0.79118684  0.55260690    -0.72500
O403        O  0.53551888  0.70330955  0.54817443    -0.72500
O404        O  0.53252569  0.79457306  0.44890074    -0.72600
V405        V  0.96014243  0.74732166  0.49579602     1.35200
V406        V  0.53230310  0.74898611  0.49829887     1.35200
C407        C  0.99476752  0.80971228  0.43046051     0.76800
C408        C  0.49866156  0.68695815  0.56454600     0.76800
C409        C  0.49206684  0.80591123  0.56812056     0.76700
C410        C  0.00000427  0.69173282  0.42381464     0.76700
C411        C  0.99949860  0.95968975  0.29017776     0.85800
C412        C  0.95827312  0.96372347  0.25240014    -0.54400
C413        C  0.95799613  0.50015014  0.22198378     0.08700
C414        C  0.99921281  0.53058271  0.23335697     0.19700
C415        C  0.54182409  0.96409072  0.25567673    -0.55100
C416        C  0.54466898  0.50239952  0.22797745     0.08800
C417        C  0.99570284  0.50268442  0.32147646    -0.54700
C418        C  0.49664881  0.53968091  0.29193353     0.09400
H419        H  0.93036935  0.94068218  0.25079562     0.13900
H420        H  0.99566217  0.56020210  0.20945706    -0.00300
H421        H  0.56607084  0.93665999  0.25240034     0.14200
H422        H  0.99286031  0.50406459  0.36357188     0.14000
C423        C  0.49284723  0.95601983  0.70866323     0.85800
C424        C  0.53585793  0.96045237  0.74488422    -0.54400
C425        C  0.53699386  0.49813353  0.77386356     0.08700
C426        C  0.49482840  0.52871004  0.76235172     0.19700
C427        C  0.95142560  0.96265534  0.74365881    -0.55100
C428        C  0.95184785  0.49988305  0.77215023     0.08800
C429        C  0.49431522  0.49788747  0.67556756    -0.54700
C430        C  0.99625734  0.53641056  0.70263091     0.09400
H431        H  0.56413971  0.93674236  0.74643887     0.13900
H432        H  0.49621407  0.55890811  0.78518557    -0.00300
H433        H  0.92451948  0.93859284  0.74743047     0.14200
H434        H  0.49476687  0.49686741  0.63334155     0.14000
O435        O  0.79366902  0.98426373  0.05560198    -0.72500
O436        O  0.70409260  0.97949316  0.94582508    -0.72700
O437        O  0.79663269  0.98034329  0.95117683    -0.72500
O438        O  0.70054728  0.98308503  0.05011208    -0.72500
O439        O  0.70170529  0.55367405  0.05149886    -0.72500
O440        O  0.79222190  0.55093007  0.94443609    -0.72500
O441        O  0.69859282  0.55046732  0.94607244    -0.72500
O442        O  0.79456717  0.55506284  0.04858952    -0.72600
V443        V  0.74870438  0.98317172  0.00068001     1.35200
V444        V  0.74662097  0.55124471  0.99754037     1.35200
C445        C  0.81008794  0.52041842  0.06983316     0.76800
C446        C  0.68560251  0.51428755  0.92788553     0.76800
C447        C  0.81081203  0.51496096  0.93055825     0.76700
C448        C  0.68589475  0.51856780  0.06962103     0.76700
C449        C  0.60298129  0.52478518  0.90091871    -0.02500
C450        C  0.64851423  0.51271393  0.88778908     0.06600
C451        C  0.65844840  0.99971422  0.83663265    -0.02600
C452        C  0.62273596  0.99833586  0.79864740    -0.02600
C453        C  0.57581898  0.50755767  0.81216178     0.07300
C454        C  0.56684372  0.52291681  0.86358496    -0.02800
Br455      Br  0.50638430  0.54207711  0.88640852    -0.01400
Br456      Br  0.58976182  0.54107859  0.97200680    -0.01500
Br457      Br  0.64022957  0.98786433  0.72735950    -0.01400
Br458      Br  0.72144503  0.98388703  0.81871794    -0.01400
C459        C  0.91930045  0.47841210  0.85804577    -0.02500
C460        C  0.91715027  0.50600084  0.81385306     0.07200
C461        C  0.87830346  0.53396680  0.80623558    -0.02600
C462        C  0.84549489  0.53954149  0.84598983    -0.02600
C463        C  0.84809803  0.51281818  0.89109717     0.07300
C464        C  0.88494442  0.48154073  0.89631008    -0.02800
Br465      Br  0.88992922  0.44260030  0.95582283    -0.01400
Br466      Br  0.96835744  0.43435905  0.86522273    -0.01500
Br467      Br  0.79564510  0.58207901  0.83592429    -0.01400
Br468      Br  0.86489546  0.55744007  0.73779328    -0.01400
C469        C  0.65478412  0.48343012  0.15052206    -0.02500
C470        C  0.65269150  0.51826081  0.11400367     0.07200
C471        C  0.62232286  0.55428353  0.12436562    -0.02600
C472        C  0.59080243  0.55250576  0.16616405    -0.02600
C473        C  0.58722618  0.51358034  0.19604823     0.07300
C474        C  0.62582955  0.48415580  0.19405328    -0.02800
Br475      Br  0.65137469  0.95791251  0.25727483    -0.01400
Br476      Br  0.69893481  0.43494493  0.14515273    -0.01500
Br477      Br  0.56466055  0.60751121  0.19004680    -0.01400
Br478      Br  0.62263548  0.60673125  0.08212727    -0.01400
C479        C  0.87259350  0.50960490  0.19957076    -0.02500
C480        C  0.91963657  0.50981866  0.18383753     0.07200
C481        C  0.92974081  0.51779649  0.13096838    -0.02600
C482        C  0.89360155  0.52518787  0.09451218    -0.02600
C483        C  0.84722864  0.52171522  0.10967915     0.07300
C484        C  0.83675125  0.51627417  0.16250666    -0.02800
Br485      Br  0.77317570  0.52135825  0.18426896    -0.01400
Br486      Br  0.85580379  0.99983921  0.27139137    -0.01500
Br487      Br  0.90755639  0.54134360  0.02389883    -0.01400
Br488      Br  0.99237034  0.51332191  0.10607243    -0.01400
C489        C  0.52695905  0.91790321  0.37226125    -0.02500
C490        C  0.00235464  0.91807084  0.32397832     0.07200
C491        C  0.98314999  0.87799004  0.30734635    -0.02600
C492        C  0.97742187  0.84378269  0.34334129    -0.02600
C493        C  0.99550850  0.84714855  0.39428969     0.07300
C494        C  0.52121121  0.88397155  0.40822663    -0.02800
Br495      Br  0.54806805  0.88888953  0.47744257    -0.01400
Br496      Br  0.57558613  0.95868552  0.38662646    -0.01500
Br497      Br  0.94761209  0.79111580  0.32146799    -0.01400
Br498      Br  0.97591225  0.86449193  0.23404647    -0.01400
C499        C  0.54182961  0.59542023  0.34079059    -0.02500
C500        C  0.50023449  0.58355692  0.31602708     0.07200
C501        C  0.96154268  0.61205804  0.31794643    -0.02600
C502        C  0.96179614  0.64862866  0.35119645    -0.02600
C503        C  0.50193635  0.65785727  0.38171636     0.07300
C504        C  0.54317819  0.63273311  0.37276819    -0.02800
Br505      Br  0.60247225  0.64763310  0.40318792    -0.01400
Br506      Br  0.59768803  0.56098490  0.32956984    -0.01500
Br507      Br  0.90647667  0.68553814  0.35258156    -0.01400
Br508      Br  0.90824540  0.60133873  0.27445162    -0.01400
C509        C  0.51354468  0.83881071  0.65422779    -0.02500
C510        C  0.48926465  0.84189152  0.60643087     0.07200
C511        C  0.96016740  0.87863125  0.59636144    -0.02600
C512        C  0.95790247  0.91326072  0.63224352    -0.02600
C513        C  0.48842891  0.91376534  0.67625648     0.07300
C514        C  0.51115976  0.87353507  0.69028218    -0.02800
Br515      Br  0.52804525  0.85994199  0.76175930    -0.01400
Br516      Br  0.54766193  0.78557386  0.67188285    -0.01500
Br517      Br  0.90835135  0.95663944  0.62312651    -0.01400
Br518      Br  0.92500243  0.88327554  0.53179429    -0.01400
C519        C  0.97869644  0.61876723  0.68631400    -0.02500
C520        C  0.00330081  0.57922556  0.67420191     0.07200
C521        C  0.53225562  0.57931334  0.62973650    -0.02600
C522        C  0.52954685  0.61381328  0.59354395    -0.02600
C523        C  0.00087952  0.65067637  0.60288475     0.07300
C524        C  0.97682761  0.65377118  0.65014621    -0.02800
Br525      Br  0.94241409  0.70704607  0.66592966    -0.01400
Br526      Br  0.95052664  0.62896411  0.75288720    -0.01500
Br527      Br  0.56311899  0.60872009  0.52909914    -0.01400
Br528      Br  0.57975754  0.53455614  0.61955653    -0.01400
loop_ 
_geom_bond_atom_site_label_1 
_geom_bond_atom_site_label_2 
_geom_bond_distance 
_geom_bond_site_symmetry_2 
_ccdc_geom_bond_type 
O1            V9   1.910       .  S
O1           C11   1.266       .  A
O2            V9   1.908       .  S
O2          C276   1.266       .  A
O3            V9   1.895       .  S
O3          C277   1.263       .  A
O4            V9   1.897       .  S
O4           C14   1.263       .  A
O5           V10   1.900       .  S
O5          C278   1.264       .  A
O6           V10   1.902       .  S
O6           C13   1.265   1_455  A
O7           V10   1.894       .  S
O7           C12   1.262   1_455  A
O8           V10   1.884       .  S
O8          C275   1.260   1_455  A
V9          V274   2.085       .  T
V10         V273   2.085   1_455  T
C11         O272   1.260       .  A
C11          C97   1.474       .  S
C12         O266   1.266       .  A
C12         C391   1.482   1_655  S
C13         O267   1.263       .  A
C13         C114   1.479       .  S
C14         O269   1.264       .  A
C14         C371   1.499       .  S
C15          C16   1.528       .  S
C15         C153   1.545       .  S
C15         C283   1.526       .  S
C15          C94   1.540       .  S
C16          H23   1.083       .  S
C16         C149   1.360       .  D
C17          C18   1.553       .  S
C17         C148   1.360   1_545  D
C17          C84   1.493       .  S
C18         C286   1.532       .  S
C18         C284   1.561       .  S
C18          H24   1.096       .  S
C19         C279   1.526   1_455  S
C19          H25   1.084       .  S
C19         C152   1.375       .  D
C20         C282   1.561   1_455  S
C20         C151   1.375   1_545  D
C20          C77   1.530       .  S
C21         C147   1.545   1_545  S
C21          H26   1.086       .  S
C21         C286   1.362       .  D
C22         C282   1.532       .  S
C22         C285   1.362       .  D
C22         C104   1.484   1_655  S
C27          C28   1.550   1_655  S
C27         C165   1.538       .  S
C27         C295   1.515       .  S
C27         C117   1.545       .  S
C28          H35   1.080       .  S
C28         C161   1.374       .  D
C29          C30   1.543   1_465  S
C29         C160   1.374       .  D
C29          C57   1.514   1_565  S
C30         C298   1.552       .  S
C30         C296   1.561   1_545  S
C30          H36   1.096       .  S
C31         C291   1.515       .  S
C31          H37   1.087       .  S
C31         C164   1.355       .  D
C32         C294   1.561   1_565  S
C32         C163   1.355       .  D
C32          C64   1.484   1_565  S
C33         C159   1.538       .  S
C33          H38   1.085       .  S
C33         C298   1.371   1_565  D
C34         C294   1.552       .  S
C34         C297   1.371   1_545  D
C34         C124   1.518       .  S
O39          V47   1.905       .  S
O39         C181   1.266       .  A
O40          V47   1.901   1_556  S
O40         C182   1.263       .  A
O41          V47   1.891   1_556  S
O41         C183   1.262       .  A
O42          V47   1.894       .  S
O42         C184   1.262       .  A
O43          V48   1.909   1_554  S
O43          C52   1.267       .  A
O44          V48   1.907       .  S
O44          C51   1.267       .  A
O45          V48   1.903       .  S
O45          C50   1.265       .  A
O46          V48   1.899   1_554  S
O46          C49   1.262       .  A
V47         V180   2.083   1_554  T
V48         V179   2.083   1_546  T
C49         O171   1.266   1_545  A
C49          C87   1.473       .  S
C50         O172   1.263   1_545  A
C50          C54   1.477       .  S
C51         O173   1.262   1_545  A
C51          C67   1.488       .  S
C52         O174   1.262   1_545  A
C52          C74   1.498       .  S
C53          C54   1.402       .  A
C53          C58   1.410       .  A
C53         Br60   1.933       .  S
C54         C187   1.404   1_545  A
C55          C56   1.411       .  A
C55         C186   1.404       .  A
C55         Br62   1.932       .  S
C56         C189   1.424       .  A
C56         Br61   1.930       .  S
C57          C58   1.427       .  A
C57         C188   1.424   1_545  A
C58         Br59   1.926       .  S
C63          C64   1.413   1_565  A
C63          C68   1.406       .  A
C63         Br70   1.939       .  S
C64          C65   1.406       .  A
C65          C66   1.409       .  A
C65         Br72   1.928       .  S
C66          C67   1.417       .  A
C66         Br71   1.932       .  S
C67          C68   1.419   1_545  A
C68         Br69   1.938       .  S
C73          C74   1.418   1_565  A
C73          C78   1.404       .  A
C73         Br80   1.939       .  S
C74          C75   1.420       .  A
C75          C76   1.417       .  A
C75         Br82   1.935       .  S
C76          C77   1.422       .  A
C76         Br81   1.932       .  S
C77          C78   1.417   1_545  A
C78        Br211   1.939       .  S
Br79        C210   1.939       .  S
C83          C84   1.422       .  A
C83          C88   1.408       .  A
C83        Br222   1.937   1_545  S
C84          C85   1.414       .  A
C85          C86   1.407       .  A
C85         Br92   1.927       .  S
C86          C87   1.405       .  A
C86         Br91   1.928       .  S
C87          C88   1.404       .  A
C88         Br89   1.928       .  S
Br90        C215   1.937       .  S
C93          C98   1.402       .  A
C93         C358   1.421       .  A
C93        Br100   1.932       .  S
C94          C95   1.421       .  A
C94         C357   1.421       .  A
C95          C96   1.409       .  A
C95        Br102   1.937       .  S
C96          C97   1.407       .  A
C96        Br101   1.925       .  S
C97         C362   1.407       .  A
C98         C361   1.407   1_455  A
C98         Br99   1.937       .  S
C103        C104   1.407       .  A
C103        C108   1.408       .  A
C103       Br110   1.930       .  S
C104        C369   1.402   1_455  A
C105        C106   1.408       .  A
C105        C368   1.402       .  A
C105       Br112   1.924       .  S
C106        C371   1.424       .  A
C106       Br111   1.935       .  S
C107        C278   1.499       .  S
C107        C108   1.423       .  A
C107        C370   1.424   1_455  A
C108       Br109   1.936       .  S
C113        C114   1.407   1_455  A
C113        C118   1.411       .  A
C113       Br120   1.934       .  S
C114        C379   1.409       .  A
C115        C116   1.406       .  A
C115        C378   1.409       .  A
C115       Br122   1.936       .  S
C116        C381   1.424       .  A
C116       Br121   1.940       .  S
C117        C118   1.425   1_655  A
C117        C380   1.424       .  A
C118       Br119   1.935       .  S
C123        C124   1.425       .  A
C123        C128   1.416       .  A
C123       Br130   1.925       .  S
C124        C389   1.423       .  A
C125        C126   1.405       .  A
C125        C388   1.423       .  A
C125       Br132   1.935       .  S
C126        C391   1.406       .  A
C126       Br131   1.933       .  S
C127        C276   1.482       .  S
C127        C128   1.408       .  A
C127        C390   1.406       .  A
C128       Br129   1.935       .  S
O133        V141   1.910       .  S
O133        C143   1.266       .  A
O134        V141   1.908       .  S
O134        C408   1.266       .  A
O135        V141   1.895       .  S
O135        C409   1.263       .  A
O136        V141   1.897       .  S
O136        C146   1.263       .  A
O137        V142   1.900       .  S
O137        C410   1.264       .  A
O138        V142   1.902       .  S
O138        C145   1.265   1_455  A
O139        V142   1.894       .  S
O139        C144   1.262   1_455  A
O140        V142   1.884       .  S
O140        C407   1.260   1_455  A
V141        V406   2.085       .  T
V142        V405   2.085   1_455  T
C143        O404   1.260       .  A
C143        C229   1.474       .  S
C144        O398   1.266       .  A
C144        C523   1.482   1_655  S
C145        O399   1.263       .  A
C145        C246   1.479       .  S
C146        O401   1.264       .  A
C146        C503   1.499       .  S
C147        C148   1.528       .  S
C147        C415   1.526       .  S
C147        C226   1.540       .  S
C148        H155   1.083       .  S
C149        C150   1.553       .  S
C149        C216   1.493       .  S
C150        C418   1.532       .  S
C150        C416   1.561       .  S
C150        H156   1.096       .  S
C151        C411   1.526   1_455  S
C151        H157   1.084       .  S
C152        C414   1.561   1_455  S
C152        C209   1.530       .  S
C153        H158   1.086       .  S
C153        C418   1.362       .  D
C154        C414   1.532       .  S
C154        C417   1.362       .  D
C154        C236   1.484   1_655  S
C159        C160   1.550   1_655  S
C159        C427   1.515       .  S
C159        C249   1.545       .  S
C160        H167   1.080       .  S
C161        C162   1.543   1_455  S
C161        C189   1.514       .  S
C162        C430   1.552       .  S
C162        C428   1.561       .  S
C162        H168   1.096       .  S
C163        C423   1.515       .  S
C163        H169   1.087       .  S
C164        C426   1.561       .  S
C164        C196   1.484       .  S
C165        H170   1.085       .  S
C165        C430   1.371       .  D
C166        C426   1.552       .  S
C166        C429   1.371       .  D
C166        C256   1.518       .  S
O171        V179   1.905       .  S
O172        V179   1.901   1_556  S
O173        V179   1.891   1_556  S
O174        V179   1.894       .  S
O175        V180   1.909   1_554  S
O175        C184   1.267       .  A
O176        V180   1.907       .  S
O176        C183   1.267       .  A
O177        V180   1.903       .  S
O177        C182   1.265       .  A
O178        V180   1.899   1_554  S
O178        C181   1.262       .  A
C181        C219   1.473       .  S
C182        C186   1.477       .  S
C183        C199   1.488       .  S
C184        C206   1.498       .  S
C185        C186   1.402       .  A
C185        C190   1.410       .  A
C185       Br192   1.933       .  S
C187        C188   1.411       .  A
C187       Br194   1.932       .  S
C188       Br193   1.930       .  S
C189        C190   1.427       .  A
C190       Br191   1.926       .  S
C195        C196   1.413       .  A
C195        C200   1.406       .  A
C195       Br202   1.939       .  S
C196        C197   1.406       .  A
C197        C198   1.409       .  A
C197       Br204   1.928       .  S
C198        C199   1.417       .  A
C198       Br203   1.932       .  S
C199        C200   1.419       .  A
C200       Br201   1.938       .  S
C205        C206   1.418       .  A
C205        C210   1.404       .  A
C205       Br212   1.939       .  S
C206        C207   1.420       .  A
C207        C208   1.417       .  A
C207       Br214   1.935       .  S
C208        C209   1.422       .  A
C208       Br213   1.932       .  S
C209        C210   1.417       .  A
C215        C216   1.422       .  A
C215        C220   1.408       .  A
C216        C217   1.414       .  A
C217        C218   1.407       .  A
C217       Br224   1.927       .  S
C218        C219   1.405       .  A
C218       Br223   1.928       .  S
C219        C220   1.404       .  A
C220       Br221   1.928       .  S
C225        C490   1.421       .  A
C225        C230   1.402       .  A
C225       Br232   1.932       .  S
C226        C489   1.421       .  A
C226        C227   1.421       .  A
C227        C228   1.409       .  A
C227       Br234   1.937       .  S
C228        C229   1.407       .  A
C228       Br233   1.925       .  S
C229        C494   1.407       .  A
C230        C493   1.407   1_455  A
C230       Br231   1.937       .  S
C235        C236   1.407       .  A
C235        C240   1.408       .  A
C235       Br242   1.930       .  S
C236        C501   1.402   1_455  A
C237        C500   1.402       .  A
C237        C238   1.408       .  A
C237       Br244   1.924       .  S
C238        C503   1.424       .  A
C238       Br243   1.935       .  S
C239        C410   1.499       .  S
C239        C502   1.424   1_455  A
C239        C240   1.423       .  A
C240       Br241   1.936       .  S
C245        C246   1.407   1_455  A
C245        C250   1.411       .  A
C245       Br252   1.934       .  S
C246        C511   1.409       .  A
C247        C510   1.409       .  A
C247        C248   1.406       .  A
C247       Br254   1.936       .  S
C248        C513   1.424       .  A
C248       Br253   1.940       .  S
C249        C512   1.424       .  A
C249        C250   1.425   1_655  A
C250       Br251   1.935       .  S
C255        C256   1.425       .  A
C255        C260   1.416       .  A
C255       Br262   1.925       .  S
C256        C521   1.423       .  A
C257        C520   1.423       .  A
C257        C258   1.405       .  A
C257       Br264   1.935       .  S
C258        C523   1.406       .  A
C258       Br263   1.933       .  S
C259        C408   1.482       .  S
C259        C522   1.406       .  A
C259        C260   1.408       .  A
C260       Br261   1.935       .  S
O265        V273   1.910       .  S
O265        C275   1.266       .  A
O266        V273   1.908       .  S
O267        V273   1.895       .  S
O268        V273   1.897       .  S
O268        C278   1.263   1_655  A
O269        V274   1.900       .  S
O270        V274   1.902       .  S
O270        C277   1.265       .  A
O271        V274   1.894       .  S
O271        C276   1.262       .  A
O272        V274   1.884       .  S
C275        C361   1.474       .  S
C277        C378   1.479       .  S
C279        C280   1.528       .  S
C279        C417   1.545       .  S
C279        C358   1.540   1_655  S
C280        H287   1.083       .  S
C280        C413   1.360       .  D
C281        C282   1.553       .  S
C281        C412   1.360   1_545  D
C281        C348   1.493       .  S
C282        H288   1.096       .  S
C283        H289   1.084       .  S
C283        C416   1.375       .  D
C284        C415   1.375   1_545  D
C284        C341   1.530       .  S
C285        C411   1.545   1_545  S
C285        H290   1.086       .  S
C286        C368   1.484       .  S
C291        C292   1.550       .  S
C291        C429   1.538       .  S
C291        C381   1.545       .  S
C292        H299   1.080       .  S
C292        C425   1.374       .  D
C293        C294   1.543   1_565  S
C293        C424   1.374       .  D
C293        C321   1.514   1_565  S
C294        H300   1.096       .  S
C295        H301   1.087       .  S
C295        C428   1.355       .  D
C296        C427   1.355       .  D
C296        C328   1.484   1_565  S
C297        C423   1.538       .  S
C297        H302   1.085       .  S
C298        C388   1.518   1_655  S
O303        V311   1.905       .  S
O303        C445   1.266       .  A
O304        V311   1.901   1_556  S
O304        C446   1.263       .  A
O305        V311   1.891   1_556  S
O305        C447   1.262       .  A
O306        V311   1.894       .  S
O306        C448   1.262       .  A
O307        V312   1.909   1_554  S
O307        C316   1.267       .  A
O308        V312   1.907       .  S
O308        C315   1.267       .  A
O309        V312   1.903       .  S
O309        C314   1.265       .  A
O310        V312   1.899   1_554  S
O310        C313   1.262       .  A
V311        V444   2.083   1_554  T
V312        V443   2.083   1_546  T
C313        O435   1.266   1_545  A
C313        C351   1.473       .  S
C314        O436   1.263   1_545  A
C314        C318   1.477       .  S
C315        O437   1.262   1_545  A
C315        C331   1.488       .  S
C316        O438   1.262   1_545  A
C316        C338   1.498       .  S
C317        C318   1.402       .  A
C317        C322   1.410       .  A
C317       Br324   1.933       .  S
C318        C451   1.404   1_545  A
C319        C450   1.404       .  A
C319        C320   1.411       .  A
C319       Br326   1.932       .  S
C320        C453   1.424       .  A
C320       Br325   1.930       .  S
C321        C452   1.424   1_545  A
C321        C322   1.427       .  A
C322       Br323   1.926       .  S
C327        C328   1.413   1_565  A
C327        C332   1.406       .  A
C327       Br334   1.939       .  S
C328        C329   1.406       .  A
C329        C330   1.409       .  A
C329       Br336   1.928       .  S
C330        C331   1.417       .  A
C330       Br335   1.932       .  S
C331        C332   1.419   1_545  A
C332       Br333   1.938       .  S
C337        C338   1.418   1_565  A
C337        C342   1.404       .  A
C337       Br344   1.939       .  S
C338        C339   1.420       .  A
C339        C340   1.417       .  A
C339       Br346   1.935       .  S
C340        C341   1.422       .  A
C340       Br345   1.932       .  S
C341        C342   1.417   1_545  A
C342       Br475   1.939       .  S
Br343       C474   1.939       .  S
C347        C348   1.422       .  A
C347        C352   1.408       .  A
C347       Br486   1.937   1_545  S
C348        C349   1.414       .  A
C349        C350   1.407       .  A
C349       Br356   1.927       .  S
C350        C351   1.405       .  A
C350       Br355   1.928       .  S
C351        C352   1.404       .  A
C352       Br353   1.928       .  S
Br354       C479   1.937       .  S
C357        C362   1.402       .  A
C357       Br364   1.932       .  S
C358        C359   1.421   1_455  A
C359        C360   1.409       .  A
C359       Br366   1.937       .  S
C360        C361   1.407       .  A
C360       Br365   1.925       .  S
C362       Br363   1.937       .  S
C367        C368   1.407       .  A
C367        C372   1.408       .  A
C367       Br374   1.930       .  S
C369        C370   1.408       .  A
C369       Br376   1.924       .  S
C370       Br375   1.935       .  S
C371        C372   1.423       .  A
C372       Br373   1.936       .  S
C377        C378   1.407       .  A
C377        C382   1.411       .  A
C377       Br384   1.934       .  S
C379        C380   1.406       .  A
C379       Br386   1.936       .  S
C380       Br385   1.940       .  S
C381        C382   1.425       .  A
C382       Br383   1.935       .  S
C387        C388   1.425   1_655  A
C387        C392   1.416       .  A
C387       Br394   1.925       .  S
C389        C390   1.405       .  A
C389       Br396   1.935       .  S
C390       Br395   1.933       .  S
C391        C392   1.408   1_455  A
C392       Br393   1.935       .  S
O397        V405   1.910       .  S
O397        C407   1.266       .  A
O398        V405   1.908       .  S
O399        V405   1.895       .  S
O400        V405   1.897       .  S
O400        C410   1.263   1_655  A
O401        V406   1.900       .  S
O402        V406   1.902       .  S
O402        C409   1.265       .  A
O403        V406   1.894       .  S
O403        C408   1.262       .  A
O404        V406   1.884       .  S
C407        C493   1.474       .  S
C409        C510   1.479       .  S
C411        C412   1.528       .  S
C411        C490   1.540   1_655  S
C412        H419   1.083       .  S
C413        C414   1.553       .  S
C413        C480   1.493       .  S
C414        H420   1.096       .  S
C415        H421   1.084       .  S
C416        C473   1.530       .  S
C417        H422   1.086       .  S
C418        C500   1.484       .  S
C423        C424   1.550       .  S
C423        C513   1.545       .  S
C424        H431   1.080       .  S
C425        C426   1.543       .  S
C425        C453   1.514       .  S
C426        H432   1.096       .  S
C427        H433   1.087       .  S
C428        C460   1.484       .  S
C429        H434   1.085       .  S
C430        C520   1.518   1_655  S
O435        V443   1.905       .  S
O436        V443   1.901   1_556  S
O437        V443   1.891   1_556  S
O438        V443   1.894       .  S
O439        V444   1.909   1_554  S
O439        C448   1.267       .  A
O440        V444   1.907       .  S
O440        C447   1.267       .  A
O441        V444   1.903       .  S
O441        C446   1.265       .  A
O442        V444   1.899   1_554  S
O442        C445   1.262       .  A
C445        C483   1.473       .  S
C446        C450   1.477       .  S
C447        C463   1.488       .  S
C448        C470   1.498       .  S
C449        C450   1.402       .  A
C449        C454   1.410       .  A
C449       Br456   1.933       .  S
C451        C452   1.411       .  A
C451       Br458   1.932       .  S
C452       Br457   1.930       .  S
C453        C454   1.427       .  A
C454       Br455   1.926       .  S
C459        C460   1.413       .  A
C459        C464   1.406       .  A
C459       Br466   1.939       .  S
C460        C461   1.406       .  A
C461        C462   1.409       .  A
C461       Br468   1.928       .  S
C462        C463   1.417       .  A
C462       Br467   1.932       .  S
C463        C464   1.419       .  A
C464       Br465   1.938       .  S
C469        C470   1.418       .  A
C469        C474   1.404       .  A
C469       Br476   1.939       .  S
C470        C471   1.420       .  A
C471        C472   1.417       .  A
C471       Br478   1.935       .  S
C472        C473   1.422       .  A
C472       Br477   1.932       .  S
C473        C474   1.417       .  A
C479        C480   1.422       .  A
C479        C484   1.408       .  A
C480        C481   1.414       .  A
C481        C482   1.407       .  A
C481       Br488   1.927       .  S
C482        C483   1.405       .  A
C482       Br487   1.928       .  S
C483        C484   1.404       .  A
C484       Br485   1.928       .  S
C489        C494   1.402       .  A
C489       Br496   1.932       .  S
C490        C491   1.421   1_455  A
C491        C492   1.409       .  A
C491       Br498   1.937       .  S
C492        C493   1.407       .  A
C492       Br497   1.925       .  S
C494       Br495   1.937       .  S
C499        C500   1.407       .  A
C499        C504   1.408       .  A
C499       Br506   1.930       .  S
C501        C502   1.408       .  A
C501       Br508   1.924       .  S
C502       Br507   1.935       .  S
C503        C504   1.423       .  A
C504       Br505   1.936       .  S
C509        C510   1.407       .  A
C509        C514   1.411       .  A
C509       Br516   1.934       .  S
C511        C512   1.406       .  A
C511       Br518   1.936       .  S
C512       Br517   1.940       .  S
C513        C514   1.425       .  A
C514       Br515   1.935       .  S
C519        C520   1.425   1_655  A
C519        C524   1.416       .  A
C519       Br526   1.925       .  S
C521        C522   1.405       .  A
C521       Br528   1.935       .  S
C522       Br527   1.933       .  S
C523        C524   1.408   1_455  A
C524       Br525   1.935       .  S
