geometry optimzed in LAMMPS
_audit_creation_date              2020-12-01 
_audit_creation_method            'lammps2cif' 
_symmetry_space_group_name_H-M    'P1' 
_symmetry_Int_Tables_number       1 
_symmetry_cell_setting            triclinic 
loop_ 
_symmetry_equiv_pos_as_xyz 
  x,y,z 
_cell_length_a                    31.94864468 
_cell_length_b                    32.368342607211375 
_cell_length_c                    32.16897139425355 
_cell_angle_alpha                 90.05403257041722 
_cell_angle_beta                  90.04092275201431 
_cell_angle_gamma                 89.98542546939149 
loop_ 
_atom_site_label 
_atom_site_type_symbol 
_atom_site_fract_x 
_atom_site_fract_y 
_atom_site_fract_z 
_atom_site_charge 
C1          C  0.42275868  0.37081279  0.41964578     0.04000
C2          C  0.38735943  0.38651654  0.44012769    -0.12200
C3          C  0.36719544  0.42204035  0.42524392     0.01500
C4          C  0.38273395  0.44211683  0.38978619    -0.10700
C5          C  0.41798577  0.42662873  0.36902346     0.04000
C6          C  0.43799977  0.39099247  0.38413090    -0.10100
H7          H  0.37434496  0.37001826  0.46644268     0.09600
H8          H  0.36622122  0.46857518  0.37719687     0.07100
H9          H  0.46419922  0.37793187  0.36722397     0.07000
C10         C  0.42189055  0.32875401  0.16943678     0.04000
C11         C  0.43859470  0.30847665  0.13449218    -0.12200
C12         C  0.41967165  0.27224076  0.11836864     0.01500
C13         C  0.38485107  0.25544250  0.13915530    -0.10700
C14         C  0.36777845  0.27559561  0.17396003     0.04000
C15         C  0.38628102  0.31186581  0.18877602    -0.10100
H16         H  0.46507861  0.32213508  0.11862278     0.09600
H17         H  0.36922824  0.22842479  0.12666719     0.07100
H18         H  0.37197533  0.32748720  0.21498693     0.07000
O19         O  0.04464413  0.28560569  0.00789031    -0.77600
C20         C  0.43954336  0.33032529  0.43211434     0.83400
O21         O  0.42108613  0.22012291  0.06438042    -0.78700
O22         O  0.38408077  0.21093973  0.41774675    -0.80200
O23         O  0.03290037  0.18825937  0.39551816    -0.80000
O24         O  0.07492734  0.22769898  0.48537268    -0.78600
Zn25       Zn  0.48249814  0.27776913  0.99863525     1.55700
O26         O  0.47275533  0.21014544  0.36793239    -0.80000
Cd27       Cd  0.02461177  0.19703013  0.45888010     1.59700
Cd28       Cd  0.43410076  0.18856506  0.00798516     1.59600
O29         O  0.02508191  0.13920840  0.48448969    -0.80000
O30         O  0.47054412  0.22524624  0.47176317    -1.90500
Cd31       Cd  0.44222856  0.23693051  0.41777896     1.59900
O32         O  0.46610242  0.13263093  0.02091173    -0.80000
O33         O  0.43371226  0.29960480  0.40803955    -0.78600
C34         C  0.43341852  0.25558273  0.07734688     0.83900
C35         C  0.07681108  0.26277239  0.00320869     0.83500
O36         O  0.45730854  0.32645479  0.46738707    -0.77600
C37         C  0.00834858  0.19284192  0.36460617     0.84400
O38         O  0.45666391  0.27852436  0.05507563    -0.78500
C39         C  0.50134534  0.11839407  0.00831549     0.84500
C40         C  0.36314112  0.18700372  0.44116739     0.84800
O41         O  0.37742673  0.17479790  0.47634371    -0.80100
C42         C  0.26550058  0.12114269  0.42260190     0.04000
C43         C  0.24849927  0.14128473  0.38764475    -0.12200
C44         C  0.26849066  0.17618982  0.37084516     0.01500
C45         C  0.30472554  0.19156008  0.38968300    -0.10700
C46         C  0.32182246  0.17269023  0.42523357     0.04000
C47         C  0.30167081  0.13785914  0.44177010    -0.10100
H48         H  0.22164206  0.12824637  0.37176877     0.09600
H49         H  0.32032589  0.21774629  0.37553804     0.07100
H50         H  0.31557080  0.12245220  0.46828232     0.07000
O51         O  0.18307819  0.40126610  0.03589641    -0.77600
C52         C  0.25672964  0.00663806  0.07930733     0.83400
O53         O  0.12604931  0.02231423  0.46726413    -0.78700
O54         O  0.27332913  0.05910131  0.46007537    -0.80200
O55         O  0.29544234  0.41101427  0.43836325    -0.80000
O56         O  0.20457727  0.37157378  0.47709365    -0.78600
Zn57       Zn  0.19136835  0.46258100  0.02658556     1.55700
O58         O  0.32355030  0.47058804  0.45931813    -0.80000
Cd59       Cd  0.23177923  0.42043051  0.44613880     1.59700
Cd60       Cd  0.18292317  0.00968597  0.43636445     1.59600
O61         O  0.20653661  0.41958982  0.38778817    -0.80000
O62         O  0.21885422  0.47393034  0.47389443    -1.90500
Cd63       Cd  0.27320738  0.00148402  0.48577120     1.59900
O64         O  0.17034199  0.47797347  0.38004563    -0.80000
O65         O  0.28176624  0.01065322  0.04877986    -0.78600
C66         C  0.11247145  0.01005733  0.00263807     0.83900
C67         C  0.18734055  0.36962443  0.01266889     0.83500
O68         O  0.22106584  0.48952317  0.07537664    -0.77600
C69         C  0.32674583  0.43502373  0.44263446     0.84400
O70         O  0.13440739  0.48703603  0.02608013    -0.77700
C71         C  0.18288422  0.44289857  0.36630820     0.84500
C72         C  0.24964991  0.08009096  0.43632898     0.84800
O73         O  0.21438552  0.06598719  0.42358730    -0.80100
C74         C  0.01684033  0.07726323  0.02225229     0.04000
C75         C  0.05197474  0.05950807  0.50259803    -0.12200
C76         C  0.07126791  0.02406184  0.01877593     0.01500
C77         C  0.05401880  0.50510772  0.05429595    -0.10700
C78         C  0.01906207  0.02209734  0.07443070     0.04000
C79         C  0.50027340  0.05795682  0.05772027    -0.10100
H80         H  0.06585536  0.07463161  0.47593549     0.09600
H81         H  0.06923924  0.47833897  0.06770757     0.07100
H82         H  0.47401627  0.07213128  0.07354498     0.07000
C83         C  0.17269498  0.37285022  0.27224568     0.04000
C84         C  0.18792245  0.39131839  0.30855054    -0.12200
C85         C  0.16912875  0.42708791  0.32501500     0.01500
C86         C  0.13460301  0.44417300  0.30420625    -0.10700
C87         C  0.11788641  0.42528042  0.26812413     0.04000
C88         C  0.13797333  0.39013744  0.25171869    -0.10100
H89         H  0.21380812  0.37675572  0.32468042     0.09600
H90         H  0.11923345  0.47087585  0.31761173     0.07100
H91         H  0.12487461  0.37446144  0.22492372     0.07000
O92         O  0.39474846  0.03717275  0.18579302    -0.77600
C93         C  0.50042576  0.08164863  0.25918747     0.83400
O94         O  0.01815896  0.47088737  0.12898210    -0.78700
O95         O  0.05533166  0.46316331  0.27533686    -0.80200
O96         O  0.40656813  0.43888926  0.29753659    -0.80000
O97         O  0.36482027  0.47915233  0.20835073    -0.78600
Zn98       Zn  0.45687696  0.02861977  0.19397883     1.55700
O99         O  0.46608389  0.46184650  0.32555951    -0.80000
Cd100      Cd  0.41500519  0.44807378  0.23419489     1.59700
Cd101      Cd  0.00540785  0.43946474  0.18522605     1.59600
O102        O  0.41432140  0.39066211  0.20752255    -0.80000
O103        O  0.46890010  0.47629845  0.22128633    -1.90500
Cd104      Cd  0.99681350  0.48850794  0.27535626     1.59900
O105        O  0.47350962  0.38347766  0.17157507    -0.80000
O106        O  0.00524723  0.05135388  0.28400049    -0.78600
C107        C  0.50528277  0.00593408  0.11550865     0.83900
C108        C  0.36269502  0.01429845  0.19077894     0.83500
O109        O  0.48315838  0.07738676  0.22376604    -0.77600
C110        C  0.43070119  0.44398496  0.32869458     0.84400
O111        O  0.48163242  0.02887503  0.13733287    -0.77700
C112        C  0.43792598  0.36966913  0.18365185     0.84500
C113        C  0.07653083  0.43930126  0.25199667     0.84800
O114        O  0.06227879  0.42654953  0.21696011    -0.80100
C115        C  0.26692632  0.07990885  0.17026673     0.04000
C116        C  0.24965269  0.05899632  0.13587915    -0.12200
C117        C  0.26946184  0.02352541  0.11979664     0.01500
C118        C  0.30551491  0.50809129  0.13910469    -0.10700
C119        C  0.32246306  0.02815224  0.17376892     0.04000
C120        C  0.30338305  0.06387600  0.18904188    -0.10100
H121        H  0.22268619  0.07172646  0.11995048     0.09600
H122        H  0.32149428  0.48157352  0.12595437     0.07100
H123        H  0.31781160  0.07965533  0.21510444     0.07000
C124        C  0.01666439  0.12230160  0.27168743     0.04000
C125        C  0.50162625  0.14094671  0.30809149    -0.12200
C126        C  0.02111742  0.17627619  0.32408054     0.01500
C127        C  0.05578589  0.19283181  0.30372379    -0.10700
C128        C  0.07177854  0.17437029  0.26734058     0.04000
C129        C  0.05130508  0.13949255  0.25085738    -0.10100
H130        H  0.47592616  0.12691857  0.32494014     0.09600
H131        H  0.07120867  0.21938703  0.31744248     0.07100
H132        H  0.06404395  0.12393763  0.22383143     0.07000
C133        C  0.17008537  0.33000495  0.02657150     0.04000
C134        C  0.18599363  0.31063339  0.06202273    -0.12200
C135        C  0.16784693  0.27393608  0.07720476     0.01500
C136        C  0.13358659  0.25674389  0.05581686    -0.10700
C137        C  0.11677679  0.27681774  0.02081149     0.04000
C138        C  0.13531190  0.31318758  0.50615031    -0.10100
H139        H  0.21214299  0.32478765  0.07812767     0.09600
H140        H  0.11829978  0.22936744  0.06782993     0.07100
H141        H  0.12178928  0.32916183  0.47974234     0.07000
O142        O  0.20767709  0.32791549  0.22519609    -0.77600
C143        C  0.32733068  0.26221100  0.19121058     0.83400
O144        O  0.16966761  0.22162191  0.13034813    -0.78700
O145        O  0.27358265  0.14098856  0.20944196    -0.80200
O146        O  0.22051182  0.21118366  0.32668104    -0.80000
O147        O  0.18260751  0.30156922  0.28412455    -0.78600
Zn148      Zn  0.23301609  0.27859032  0.19513733     1.55700
O149        O  0.28036272  0.18821198  0.29946244    -0.80000
Cd150      Cd  0.19149102  0.23871680  0.27579459     1.59700
Cd151      Cd  0.18379122  0.19002645  0.18570900     1.59600
O152        O  0.13341119  0.21327238  0.27430615    -0.80000
O153        O  0.22017823  0.22662077  0.22228847    -1.90500
Cd154      Cd  0.27359127  0.19809407  0.23606262     1.59900
O155        O  0.12735846  0.17569565  0.21653872    -0.80000
O156        O  0.32491262  0.22782291  0.21025188    -0.78600
C157        C  0.18232219  0.25686340  0.11751945     0.83900
C158        C  0.18885118  0.33205216  0.25985027     0.83500
O159        O  0.29540104  0.28519693  0.18554246    -0.77600
C160        C  0.25566499  0.19294761  0.33023043     0.84400
O161        O  0.20660983  0.27920452  0.13933437    -0.77700
C162        C  0.11277335  0.18875020  0.25119403     0.84500
C163        C  0.25064959  0.12053373  0.18450236     0.84800
O164        O  0.21566926  0.13470887  0.17131297    -0.80100
C165        C  0.42275869  0.37081278  0.91964573     0.04000
C166        C  0.38735942  0.38651650  0.94012766    -0.12200
C167        C  0.36719539  0.42204028  0.92524387     0.01500
C168        C  0.38273397  0.44211685  0.88978620    -0.10700
C169        C  0.41798580  0.42662876  0.86902345     0.04000
C170        C  0.43799979  0.39099249  0.88413089    -0.10100
H171        H  0.37434495  0.37001822  0.96644265     0.09600
H172        H  0.36622129  0.46857528  0.87719691     0.07100
H173        H  0.46419925  0.37793189  0.86722393     0.07000
C174        C  0.42189046  0.32875405  0.66943665     0.04000
C175        C  0.43859462  0.30847670  0.63449204    -0.12200
C176        C  0.41967160  0.27224079  0.61836855     0.01500
C177        C  0.38485099  0.25544257  0.63915517    -0.10700
C178        C  0.36777837  0.27559566  0.67395990     0.04000
C179        C  0.38628094  0.31186585  0.68877589    -0.10100
H180        H  0.46507851  0.32213513  0.61862260     0.09600
H181        H  0.36922815  0.22842487  0.62666704     0.07100
H182        H  0.37197524  0.32748724  0.71498681     0.07000
O183        O  0.04464412  0.28560570  0.50789022    -0.77600
C184        C  0.43954340  0.33032529  0.93211426     0.83400
O185        O  0.42108616  0.22012285  0.56438042    -0.78700
O186        O  0.38408084  0.21093975  0.91774669    -0.80200
O187        O  0.03290037  0.18825952  0.89551819    -0.80000
O188        O  0.07492737  0.22769907  0.98537254    -0.78600
Zn189      Zn  0.48249813  0.27776902  0.49863527     1.55700
O190        O  0.47275539  0.21014551  0.86793228    -0.80000
Cd191      Cd  0.02461170  0.19703028  0.95888016     1.59700
Cd192      Cd  0.43410070  0.18856507  0.50798507     1.59600
O193        O  0.02508180  0.13920849  0.98448967    -0.80000
O194        O  0.47054408  0.22524631  0.97176325    -1.90500
Cd195      Cd  0.44222868  0.23693046  0.91777889     1.59900
O196        O  0.46610233  0.13263087  0.52091168    -0.80000
O197        O  0.43371222  0.29960475  0.90803952    -0.78600
C198        C  0.43341847  0.25558270  0.57734683     0.83900
C199        C  0.07681105  0.26277238  0.50320869     0.83500
O200        O  0.45730871  0.32645485  0.96738691    -0.77600
C201        C  0.00834860  0.19284200  0.86460617     0.84400
O202        O  0.45666381  0.27852432  0.55507556    -0.78500
C203        C  0.50134529  0.11839400  0.50831549     0.84500
C204        C  0.36314122  0.18700374  0.94116736     0.84800
O205        O  0.37742684  0.17479796  0.97634369    -0.80100
C206        C  0.26550059  0.12114271  0.92260196     0.04000
C207        C  0.24849932  0.14128477  0.88764478    -0.12200
C208        C  0.26849074  0.17618986  0.87084522     0.01500
C209        C  0.30472566  0.19156004  0.88968300    -0.10700
C210        C  0.32182260  0.17269015  0.92523355     0.04000
C211        C  0.30167090  0.13785906  0.94177010    -0.10100
H212        H  0.22164223  0.12824641  0.87176874     0.09600
H213        H  0.32032604  0.21774620  0.87553799     0.07100
H214        H  0.31557090  0.12245205  0.96828228     0.07000
O215        O  0.18307819  0.40126605  0.53589648    -0.77600
C216        C  0.25672964  0.00663804  0.57930728     0.83400
O217        O  0.12604946  0.02231432  0.96726423    -0.78700
O218        O  0.27332906  0.05910124  0.96007538    -0.80200
O219        O  0.29544229  0.41101412  0.93836335    -0.80000
O220        O  0.20457712  0.37157375  0.97709356    -0.78600
Zn221      Zn  0.19136837  0.46258094  0.52658548     1.55700
O222        O  0.32355032  0.47058788  0.95931820    -0.80000
Cd223      Cd  0.23177917  0.42043045  0.94613886     1.59700
Cd224      Cd  0.18292328  0.00968590  0.93636441     1.59600
O225        O  0.20653656  0.41958998  0.88778811    -0.80000
O226        O  0.21885425  0.47393030  0.97389451    -1.90500
Cd227      Cd  0.27320739  0.00148392  0.98577130     1.59900
O228        O  0.17034190  0.47797359  0.88004549    -0.80000
O229        O  0.28176616  0.01065337  0.54877978    -0.78600
C230        C  0.11247138  0.01005724  0.50263797     0.83900
C231        C  0.18734061  0.36962441  0.51266894     0.83500
O232        O  0.22106589  0.48952311  0.57537661    -0.77600
C233        C  0.32674579  0.43502359  0.94263448     0.84400
O234        O  0.13440751  0.48703615  0.52608005    -0.77700
C235        C  0.18288419  0.44289871  0.86630808     0.84500
C236        C  0.24964987  0.08009095  0.93632898     0.84800
O237        O  0.21438553  0.06598718  0.92358723    -0.80100
C238        C  0.01684035  0.07726316  0.52225230     0.04000
C239        C  0.05197469  0.05950810  0.00259800    -0.12200
C240        C  0.07126785  0.02406172  0.51877588     0.01500
C241        C  0.05401885  0.50510770  0.55429596    -0.10700
C242        C  0.01906207  0.02209730  0.57443074     0.04000
C243        C  0.50027336  0.05795675  0.55772027    -0.10100
H244        H  0.06585527  0.07463157  0.97593536     0.09600
H245        H  0.06923924  0.47833894  0.56770751     0.07100
H246        H  0.47401621  0.07213119  0.57354491     0.07000
C247        C  0.17269490  0.37285017  0.77224571     0.04000
C248        C  0.18792245  0.39131847  0.80855048    -0.12200
C249        C  0.16912872  0.42708801  0.82501487     0.01500
C250        C  0.13460293  0.44417300  0.80420617    -0.10700
C251        C  0.11788635  0.42528041  0.76812407     0.04000
C252        C  0.13797328  0.39013740  0.75171866    -0.10100
H253        H  0.21380810  0.37675592  0.82468036     0.09600
H254        H  0.11923333  0.47087583  0.81761164     0.07100
H255        H  0.12487460  0.37446136  0.72492365     0.07000
O256        O  0.39474850  0.03717277  0.68579287    -0.77600
C257        C  0.50042571  0.08164868  0.75918738     0.83400
O258        O  0.01815902  0.47088745  0.62898225    -0.78700
O259        O  0.05533166  0.46316347  0.77533680    -0.80200
O260        O  0.40656812  0.43888938  0.79753661    -0.80000
O261        O  0.36482026  0.47915232  0.70835071    -0.78600
Zn262      Zn  0.45687694  0.02861977  0.69397878     1.55700
O263        O  0.46608403  0.46184632  0.82555945    -0.80000
Cd264      Cd  0.41500515  0.44807371  0.73419493     1.59700
Cd265      Cd  0.00540793  0.43946468  0.68522613     1.59600
O266        O  0.41432141  0.39066201  0.70752263    -0.80000
O267        O  0.46890004  0.47629843  0.72128634    -1.90500
Cd268      Cd  0.99681344  0.48850800  0.77535628     1.59900
O269        O  0.47350954  0.38347765  0.67157498    -0.80000
O270        O  0.00524718  0.05135392  0.78400043    -0.78600
C271        C  0.50528277  0.00593408  0.61550874     0.83900
C272        C  0.36269509  0.01429845  0.69077889     0.83500
O273        O  0.48315837  0.07738677  0.72376594    -0.77600
C274        C  0.43070125  0.44398494  0.82869457     0.84400
O275        O  0.48163236  0.02887502  0.63733289    -0.77700
C276        C  0.43792593  0.36966910  0.68365180     0.84500
C277        C  0.07653081  0.43930135  0.75199665     0.84800
O278        O  0.06227878  0.42654956  0.71696012    -0.80100
C279        C  0.26692632  0.07990879  0.67026669     0.04000
C280        C  0.24965273  0.05899626  0.63587910    -0.12200
C281        C  0.26946184  0.02352533  0.61979664     0.01500
C282        C  0.30551489  0.50809124  0.63910473    -0.10700
C283        C  0.32246307  0.02815218  0.67376895     0.04000
C284        C  0.30338299  0.06387590  0.68904194    -0.10100
H285        H  0.22268623  0.07172640  0.61995037     0.09600
H286        H  0.32149421  0.48157337  0.62595455     0.07100
H287        H  0.31781143  0.07965522  0.71510457     0.07000
C288        C  0.01666434  0.12230170  0.77168734     0.04000
C289        C  0.50162627  0.14094678  0.80809149    -0.12200
C290        C  0.02111745  0.17627626  0.82408055     0.01500
C291        C  0.05578590  0.19283188  0.80372381    -0.10700
C292        C  0.07177854  0.17437036  0.76734058     0.04000
C293        C  0.05130500  0.13949270  0.75085730    -0.10100
H294        H  0.47592620  0.12691861  0.82494020     0.09600
H295        H  0.07120875  0.21938705  0.81744259     0.07100
H296        H  0.06404388  0.12393781  0.72383131     0.07000
C297        C  0.17008537  0.33000495  0.52657149     0.04000
C298        C  0.18599351  0.31063345  0.56202278    -0.12200
C299        C  0.16784684  0.27393610  0.57720477     0.01500
C300        C  0.13358654  0.25674394  0.55581683    -0.10700
C301        C  0.11677675  0.27681778  0.52081149     0.04000
C302        C  0.13531191  0.31318755  0.00615034    -0.10100
H303        H  0.21214281  0.32478777  0.57812779     0.09600
H304        H  0.11829972  0.22936745  0.56782990     0.07100
H305        H  0.12178927  0.32916181  0.97974238     0.07000
O306        O  0.20767703  0.32791540  0.72519623    -0.77600
C307        C  0.32733062  0.26221102  0.69121045     0.83400
O308        O  0.16966756  0.22162191  0.63034818    -0.78700
O309        O  0.27358270  0.14098847  0.70944191    -0.80200
O310        O  0.22051191  0.21118348  0.82668097    -0.80000
O311        O  0.18260744  0.30156916  0.78412472    -0.78600
Zn312      Zn  0.23301604  0.27859040  0.69513726     1.55700
O313        O  0.28036290  0.18821191  0.79946245    -0.80000
Cd314      Cd  0.19149098  0.23871671  0.77579471     1.59700
Cd315      Cd  0.18379137  0.19002652  0.68570911     1.59600
O316        O  0.13341122  0.21327226  0.77430627    -0.80000
O317        O  0.22017826  0.22662089  0.72228857    -1.90500
Cd318      Cd  0.27359126  0.19809397  0.73606257     1.59900
O319        O  0.12735858  0.17569560  0.71653881    -0.80000
O320        O  0.32491255  0.22782288  0.71025167    -0.78600
C321        C  0.18232214  0.25686339  0.61751944     0.83900
C322        C  0.18885112  0.33205208  0.75985042     0.83500
O323        O  0.29540099  0.28519698  0.68554239    -0.77600
C324        C  0.25566513  0.19294755  0.83023042     0.84400
O325        O  0.20660982  0.27920452  0.63933430    -0.77700
C326        C  0.11277341  0.18875014  0.75119411     0.84500
C327        C  0.25064961  0.12053367  0.68450232     0.84800
O328        O  0.21566927  0.13470884  0.67131299    -0.80100
C329        C  0.42275873  0.87081280  0.41964576     0.04000
C330        C  0.38735949  0.88651653  0.44012770    -0.12200
C331        C  0.36719545  0.92204034  0.42524394     0.01500
C332        C  0.38273389  0.94211677  0.38978616    -0.10700
C333        C  0.41798573  0.92662871  0.36902344     0.04000
C334        C  0.43799980  0.89099250  0.38413089    -0.10100
H335        H  0.37434507  0.87001823  0.46644269     0.09600
H336        H  0.36622110  0.96857510  0.37719684     0.07100
H337        H  0.46419928  0.87793195  0.36722394     0.07000
C338        C  0.42189053  0.82875401  0.16943677     0.04000
C339        C  0.43859469  0.80847666  0.13449217    -0.12200
C340        C  0.41967165  0.77224080  0.11836861     0.01500
C341        C  0.38485105  0.75544254  0.13915527    -0.10700
C342        C  0.36777851  0.77559562  0.17396005     0.04000
C343        C  0.38628104  0.81186580  0.18877605    -0.10100
H344        H  0.46507868  0.82213510  0.11862279     0.09600
H345        H  0.36922822  0.72842488  0.12666718     0.07100
H346        H  0.37197536  0.82748717  0.21498695     0.07000
O347        O  0.04464404  0.78560570  0.00789032    -0.77600
C348        C  0.43954338  0.83032527  0.43211429     0.83400
O349        O  0.42108604  0.72012294  0.06438039    -0.78700
O350        O  0.38408083  0.71093969  0.41774675    -0.80200
O351        O  0.03290047  0.68825954  0.39551815    -0.80000
O352        O  0.07492729  0.72769897  0.48537271    -0.78600
Zn353      Zn  0.48249816  0.77776909  0.99863525     1.55700
O354        O  0.47275536  0.71014563  0.36793232    -0.80000
Cd355      Cd  0.02461180  0.69703013  0.45888010     1.59700
Cd356      Cd  0.43410078  0.68856505  0.00798516     1.59600
O357        O  0.02508192  0.63920842  0.48448973    -0.80000
O358        O  0.47054413  0.72524622  0.47176317    -1.90500
Cd359      Cd  0.44222859  0.73693052  0.41777895     1.59900
O360        O  0.46610244  0.63263094  0.02091180    -0.80000
O361        O  0.43371214  0.79960477  0.40803954    -0.78600
C362        C  0.43341850  0.75558272  0.07734687     0.83900
C363        C  0.07681101  0.76277243  0.00320872     0.83500
O364        O  0.45730866  0.82645476  0.46738696    -0.77600
C365        C  0.00834866  0.69284205  0.36460618     0.84400
O366        O  0.45666400  0.77852428  0.05507565    -0.78500
C367        C  0.50134534  0.61839408  0.00831550     0.84500
C368        C  0.36314116  0.68700369  0.44116740     0.84800
O369        O  0.37742677  0.67479787  0.47634372    -0.80100
C370        C  0.26550057  0.62114271  0.42260190     0.04000
C371        C  0.24849930  0.64128477  0.38764474    -0.12200
C372        C  0.26849069  0.67618986  0.37084518     0.01500
C373        C  0.30472561  0.69156008  0.38968300    -0.10700
C374        C  0.32182251  0.67269020  0.42523357     0.04000
C375        C  0.30167081  0.63785914  0.44177010    -0.10100
H376        H  0.22164214  0.62824641  0.37176870     0.09600
H377        H  0.32032599  0.71774627  0.37553804     0.07100
H378        H  0.31557079  0.62245217  0.46828234     0.07000
O379        O  0.18307806  0.90126612  0.03589640    -0.77600
C380        C  0.25672965  0.50663806  0.07930734     0.83400
O381        O  0.12604928  0.52231418  0.46726406    -0.78700
O382        O  0.27332911  0.55910130  0.46007538    -0.80200
O383        O  0.29544235  0.91101418  0.43836326    -0.80000
O384        O  0.20457713  0.87157381  0.47709363    -0.78600
Zn385      Zn  0.19136827  0.96258099  0.02658556     1.55700
O386        O  0.32355025  0.97058801  0.45931810    -0.80000
Cd387      Cd  0.23177926  0.92043049  0.44613880     1.59700
Cd388      Cd  0.18292318  0.50968595  0.43636444     1.59600
O389        O  0.20653664  0.91958993  0.38778814    -0.80000
O390        O  0.21885426  0.97393034  0.47389444    -1.90500
Cd391      Cd  0.27320733  0.50148400  0.48577119     1.59900
O392        O  0.17034193  0.97797350  0.38004562    -0.80000
O393        O  0.28176628  0.51065317  0.04877990    -0.78600
C394        C  0.11247141  0.51005730  0.00263809     0.83900
C395        C  0.18734047  0.86962447  0.01266888     0.83500
O396        O  0.22106584  0.98952313  0.07537667    -0.77600
C397        C  0.32674581  0.93502367  0.44263446     0.84400
O398        O  0.13440741  0.98703607  0.02608012    -0.77700
C399        C  0.18288421  0.94289863  0.36630818     0.84500
C400        C  0.24964990  0.58009096  0.43632898     0.84800
O401        O  0.21438553  0.56598717  0.42358729    -0.80100
C402        C  0.01684035  0.57726325  0.02225230     0.04000
C403        C  0.05197476  0.55950812  0.50259804    -0.12200
C404        C  0.07126787  0.52406183  0.01877593     0.01500
C405        C  0.05401888  0.00510775  0.05429599    -0.10700
C406        C  0.01906201  0.52209732  0.07443066     0.04000
C407        C  0.50027346  0.55795687  0.05772031    -0.10100
H408        H  0.06585538  0.57463165  0.47593548     0.09600
H409        H  0.06923935  0.97833900  0.06770760     0.07100
H410        H  0.47401634  0.57213134  0.07354503     0.07000
C411        C  0.17269495  0.87285022  0.27224569     0.04000
C412        C  0.18792240  0.89131837  0.30855058    -0.12200
C413        C  0.16912870  0.92708792  0.32501501     0.01500
C414        C  0.13460295  0.94417296  0.30420630    -0.10700
C415        C  0.11788636  0.92528041  0.26812418     0.04000
C416        C  0.13797331  0.89013746  0.25171869    -0.10100
H417        H  0.21380802  0.87675571  0.32468048     0.09600
H418        H  0.11923336  0.97087584  0.31761178     0.07100
H419        H  0.12487464  0.87446152  0.22492366     0.07000
O420        O  0.39474851  0.53717275  0.18579299    -0.77600
C421        C  0.50042572  0.58164864  0.25918747     0.83400
O422        O  0.01815901  0.97088739  0.12898212    -0.78700
O423        O  0.05533172  0.96316354  0.27533679    -0.80200
O424        O  0.40656804  0.93888929  0.29753661    -0.80000
O425        O  0.36482012  0.97915235  0.20835073    -0.78600
Zn426      Zn  0.45687703  0.52861975  0.19397883     1.55700
O427        O  0.46608385  0.96184645  0.32555949    -0.80000
Cd428      Cd  0.41500500  0.94807376  0.23419489     1.59700
Cd429      Cd  0.00540790  0.93946473  0.18522604     1.59600
O430        O  0.41432127  0.89066208  0.20752255    -0.80000
O431        O  0.46889992  0.97629846  0.22128632    -1.90500
Cd432      Cd  0.99681352  0.98850806  0.27535626     1.59900
O433        O  0.47350951  0.88347767  0.17157507    -0.80000
O434        O  0.00524728  0.55135386  0.28400050    -0.78600
C435        C  0.50528280  0.50593408  0.11550865     0.83900
C436        C  0.36269509  0.51429843  0.19077893     0.83500
O437        O  0.48315828  0.57738677  0.22376608    -0.77600
C438        C  0.43070114  0.94398494  0.32869458     0.84400
O439        O  0.48163251  0.52887507  0.13733289    -0.77700
C440        C  0.43792586  0.86966912  0.18365185     0.84500
C441        C  0.07653084  0.93930136  0.25199667     0.84800
O442        O  0.06227878  0.92654957  0.21696016    -0.80100
C443        C  0.26692632  0.57990884  0.17026672     0.04000
C444        C  0.24965265  0.55899627  0.13587919    -0.12200
C445        C  0.26946181  0.52352538  0.11979667     0.01500
C446        C  0.30551491  0.00809130  0.13910469    -0.10700
C447        C  0.32246308  0.52815219  0.17376894     0.04000
C448        C  0.30338307  0.56387598  0.18904186    -0.10100
H449        H  0.22268611  0.57172641  0.11995054     0.09600
H450        H  0.32149427  0.98157348  0.12595447     0.07100
H451        H  0.31781165  0.57965537  0.21510438     0.07000
C452        C  0.01666434  0.62230164  0.27168742     0.04000
C453        C  0.50162618  0.64094673  0.30809147    -0.12200
C454        C  0.02111747  0.67627619  0.32408058     0.01500
C455        C  0.05578592  0.69283175  0.30372380    -0.10700
C456        C  0.07177852  0.67437027  0.26734056     0.04000
C457        C  0.05130501  0.63949257  0.25085734    -0.10100
H458        H  0.47592605  0.62691857  0.32494011     0.09600
H459        H  0.07120873  0.71938697  0.31744247     0.07100
H460        H  0.06404383  0.62393764  0.22383138     0.07000
C461        C  0.17008537  0.83000498  0.02657148     0.04000
C462        C  0.18599366  0.81063343  0.06202270    -0.12200
C463        C  0.16784695  0.77393613  0.07720475     0.01500
C464        C  0.13358658  0.75674396  0.05581687    -0.10700
C465        C  0.11677672  0.77681782  0.02081154     0.04000
C466        C  0.13531186  0.81318755  0.50615034    -0.10100
H467        H  0.21214306  0.82478770  0.07812763     0.09600
H468        H  0.11829980  0.72936747  0.06782993     0.07100
H469        H  0.12178917  0.82916185  0.47974241     0.07000
O470        O  0.20767699  0.82791545  0.22519603    -0.77600
C471        C  0.32733075  0.76221105  0.19121059     0.83400
O472        O  0.16966752  0.72162196  0.13034815    -0.78700
O473        O  0.27358263  0.64098852  0.20944201    -0.80200
O474        O  0.22051180  0.71118359  0.32668102    -0.80000
O475        O  0.18260763  0.80156922  0.28412459    -0.78600
Zn476      Zn  0.23301617  0.77859031  0.19513733     1.55700
O477        O  0.28036276  0.68821202  0.29946246    -0.80000
Cd478      Cd  0.19149104  0.73871676  0.27579458     1.59700
Cd479      Cd  0.18379127  0.69002644  0.18570899     1.59600
O480        O  0.13341113  0.71327241  0.27430612    -0.80000
O481        O  0.22017832  0.72662075  0.22228847    -1.90500
Cd482      Cd  0.27359134  0.69809405  0.23606263     1.59900
O483        O  0.12735849  0.67569560  0.21653873    -0.80000
O484        O  0.32491266  0.72782294  0.21025183    -0.78600
C485        C  0.18232220  0.75686341  0.11751945     0.83900
C486        C  0.18885118  0.83205215  0.25985027     0.83500
O487        O  0.29540115  0.78519704  0.18554252    -0.77600
C488        C  0.25566501  0.69294763  0.33023044     0.84400
O489        O  0.20660994  0.77920445  0.13933434    -0.77700
C490        C  0.11277333  0.68875018  0.25119401     0.84500
C491        C  0.25064959  0.62053370  0.18450236     0.84800
O492        O  0.21566929  0.63470886  0.17131290    -0.80100
C493        C  0.42275868  0.87081280  0.91964575     0.04000
C494        C  0.38735941  0.88651655  0.94012765    -0.12200
C495        C  0.36719543  0.92204038  0.92524387     0.01500
C496        C  0.38273402  0.94211690  0.88978618    -0.10700
C497        C  0.41798581  0.92662874  0.86902344     0.04000
C498        C  0.43799982  0.89099250  0.88413092    -0.10100
H499        H  0.37434491  0.87001827  0.96644260     0.09600
H500        H  0.36622137  0.96857533  0.87719686     0.07100
H501        H  0.46419928  0.87793189  0.86722397     0.07000
C502        C  0.42189049  0.82875406  0.66943662     0.04000
C503        C  0.43859464  0.80847672  0.63449202    -0.12200
C504        C  0.41967163  0.77224081  0.61836852     0.01500
C505        C  0.38485104  0.75544256  0.63915518    -0.10700
C506        C  0.36777845  0.77559564  0.67395992     0.04000
C507        C  0.38628098  0.81186585  0.68877589    -0.10100
H508        H  0.46507858  0.82213516  0.61862259     0.09600
H509        H  0.36922822  0.72842484  0.62666709     0.07100
H510        H  0.37197532  0.82748727  0.71498679     0.07000
O511        O  0.04464409  0.78560571  0.50789024    -0.77600
C512        C  0.43954337  0.83032528  0.93211428     0.83400
O513        O  0.42108624  0.72012283  0.56438043    -0.78700
O514        O  0.38408081  0.71093968  0.91774668    -0.80200
O515        O  0.03290034  0.68825946  0.89551821    -0.80000
O516        O  0.07492734  0.72769910  0.98537257    -0.78600
Zn517      Zn  0.48249820  0.77776900  0.49863527     1.55700
O518        O  0.47275529  0.71014554  0.86793227    -0.80000
Cd519      Cd  0.02461174  0.69703026  0.95888016     1.59700
Cd520      Cd  0.43410075  0.68856504  0.50798508     1.59600
O521        O  0.02508188  0.63920849  0.98448967    -0.80000
O522        O  0.47054413  0.72524629  0.97176323    -1.90500
Cd523      Cd  0.44222860  0.73693044  0.91777890     1.59900
O524        O  0.46610236  0.63263086  0.52091168    -0.80000
O525        O  0.43371228  0.79960477  0.90803949    -0.78600
C526        C  0.43341853  0.75558269  0.57734683     0.83900
C527        C  0.07681101  0.76277236  0.50320872     0.83500
O528        O  0.45730860  0.82645481  0.96738697    -0.77600
C529        C  0.00834859  0.69284199  0.86460618     0.84400
O530        O  0.45666389  0.77852431  0.55507556    -0.78500
C531        C  0.50134530  0.61839399  0.50831549     0.84500
C532        C  0.36314119  0.68700370  0.94116736     0.84800
O533        O  0.37742680  0.67479796  0.97634371    -0.80100
C534        C  0.26550057  0.62114268  0.92260195     0.04000
C535        C  0.24849927  0.64128474  0.88764480    -0.12200
C536        C  0.26849067  0.67618982  0.87084522     0.01500
C537        C  0.30472560  0.69156004  0.88968301    -0.10700
C538        C  0.32182256  0.67269013  0.92523353     0.04000
C539        C  0.30167087  0.63785906  0.94177010    -0.10100
H540        H  0.22164213  0.62824636  0.87176876     0.09600
H541        H  0.32032595  0.71774622  0.87553804     0.07100
H542        H  0.31557086  0.62245209  0.96828228     0.07000
O543        O  0.18307800  0.90126603  0.53589648    -0.77600
C544        C  0.25672967  0.50663808  0.57930727     0.83400
O545        O  0.12604940  0.52231432  0.96726426    -0.78700
O546        O  0.27332915  0.55910122  0.96007536    -0.80200
O547        O  0.29544236  0.91101422  0.93836340    -0.80000
O548        O  0.20457704  0.87157381  0.97709355    -0.78600
Zn549      Zn  0.19136824  0.96258091  0.52658547     1.55700
O550        O  0.32355031  0.97058803  0.95931814    -0.80000
Cd551      Cd  0.23177922  0.92043044  0.94613886     1.59700
Cd552      Cd  0.18292318  0.50968589  0.93636440     1.59600
O553        O  0.20653665  0.91958996  0.88778809    -0.80000
O554        O  0.21885427  0.97393026  0.97389453    -1.90500
Cd555      Cd  0.27320744  0.50148388  0.98577130     1.59900
O556        O  0.17034201  0.97797358  0.88004549    -0.80000
O557        O  0.28176619  0.51065333  0.54877976    -0.78600
C558        C  0.11247141  0.51005726  0.50263797     0.83900
C559        C  0.18734047  0.86962441  0.51266893     0.83500
O560        O  0.22106585  0.98952304  0.57537660    -0.77600
C561        C  0.32674582  0.93502372  0.94263446     0.84400
O562        O  0.13440742  0.98703607  0.52608005    -0.77700
C563        C  0.18288427  0.94289870  0.86630807     0.84500
C564        C  0.24964993  0.58009090  0.93632897     0.84800
O565        O  0.21438557  0.56598712  0.92358724    -0.80100
C566        C  0.01684036  0.57726320  0.52225231     0.04000
C567        C  0.05197470  0.55950813  0.00259802    -0.12200
C568        C  0.07126788  0.52406178  0.51877588     0.01500
C569        C  0.05401881  0.00510764  0.55429595    -0.10700
C570        C  0.01906210  0.52209738  0.57443075     0.04000
C571        C  0.50027338  0.55795678  0.55772030    -0.10100
H572        H  0.06585529  0.57463162  0.97593540     0.09600
H573        H  0.06923921  0.97833882  0.56770752     0.07100
H574        H  0.47401623  0.57213122  0.57354496     0.07000
C575        C  0.17269496  0.87285017  0.77224569     0.04000
C576        C  0.18792248  0.89131847  0.80855047    -0.12200
C577        C  0.16912875  0.92708800  0.82501488     0.01500
C578        C  0.13460290  0.94417293  0.80420621    -0.10700
C579        C  0.11788632  0.92528033  0.76812410     0.04000
C580        C  0.13797332  0.89013737  0.75171865    -0.10100
H581        H  0.21380815  0.87675592  0.82468037     0.09600
H582        H  0.11923325  0.97087575  0.81761170     0.07100
H583        H  0.12487466  0.87446137  0.72492361     0.07000
O584        O  0.39474852  0.53717272  0.68579286    -0.77600
C585        C  0.50042581  0.58164864  0.75918737     0.83400
O586        O  0.01815902  0.97088740  0.62898227    -0.78700
O587        O  0.05533167  0.96316345  0.77533680    -0.80200
O588        O  0.40656806  0.93888931  0.79753661    -0.80000
O589        O  0.36482027  0.97915234  0.70835068    -0.78600
Zn590      Zn  0.45687700  0.52861976  0.69397877     1.55700
O591        O  0.46608397  0.96184636  0.82555943    -0.80000
Cd592      Cd  0.41500509  0.94807370  0.73419494     1.59700
Cd593      Cd  0.00540785  0.93946466  0.68522613     1.59600
O594        O  0.41432142  0.89066199  0.70752267    -0.80000
O595        O  0.46890003  0.97629840  0.72128635    -1.90500
Cd596      Cd  0.99681348  0.98850799  0.77535628     1.59900
O597        O  0.47350954  0.88347768  0.67157494    -0.80000
O598        O  0.00524724  0.55135391  0.78400043    -0.78600
C599        C  0.50528289  0.50593413  0.61550877     0.83900
C600        C  0.36269510  0.51429842  0.69077889     0.83500
O601        O  0.48315846  0.57738674  0.72376594    -0.77600
C602        C  0.43070122  0.94398491  0.82869455     0.84400
O603        O  0.48163245  0.52887505  0.63733291    -0.77700
C604        C  0.43792593  0.86966911  0.68365180     0.84500
C605        C  0.07653079  0.93930130  0.75199664     0.84800
O606        O  0.06227873  0.92654954  0.71696011    -0.80100
C607        C  0.26692636  0.57990881  0.67026669     0.04000
C608        C  0.24965276  0.55899632  0.63587909    -0.12200
C609        C  0.26946188  0.52352539  0.61979661     0.01500
C610        C  0.30551492  0.00809125  0.63910471    -0.10700
C611        C  0.32246308  0.52815217  0.67376895     0.04000
C612        C  0.30338304  0.56387592  0.68904192    -0.10100
H613        H  0.22268626  0.57172644  0.61995042     0.09600
H614        H  0.32149431  0.98157345  0.62595447     0.07100
H615        H  0.31781151  0.57965523  0.71510455     0.07000
C616        C  0.01666431  0.62230171  0.77168733     0.04000
C617        C  0.50162627  0.64094672  0.80809147    -0.12200
C618        C  0.02111746  0.67627623  0.82408057     0.01500
C619        C  0.05578591  0.69283183  0.80372385    -0.10700
C620        C  0.07177853  0.67437033  0.76734062     0.04000
C621        C  0.05130500  0.63949267  0.75085735    -0.10100
H622        H  0.47592623  0.62691851  0.82494015     0.09600
H623        H  0.07120878  0.71938702  0.81744259     0.07100
H624        H  0.06404390  0.62393774  0.72383139     0.07000
C625        C  0.17008534  0.83000492  0.52657149     0.04000
C626        C  0.18599354  0.81063342  0.56202275    -0.12200
C627        C  0.16784691  0.77393607  0.57720474     0.01500
C628        C  0.13358658  0.75674390  0.55581682    -0.10700
C629        C  0.11677673  0.77681775  0.52081149     0.04000
C630        C  0.13531186  0.81318762  0.00615037    -0.10100
H631        H  0.21214285  0.82478779  0.57812777     0.09600
H632        H  0.11829978  0.72936744  0.56782992     0.07100
H633        H  0.12178921  0.82916190  0.97974241     0.07000
O634        O  0.20767712  0.82791538  0.72519623    -0.77600
C635        C  0.32733071  0.76221100  0.69121047     0.83400
O636        O  0.16966745  0.72162194  0.63034821    -0.78700
O637        O  0.27358274  0.64098848  0.70944187    -0.80200
O638        O  0.22051186  0.71118350  0.82668101    -0.80000
O639        O  0.18260753  0.80156914  0.78412472    -0.78600
Zn640      Zn  0.23301614  0.77859036  0.69513726     1.55700
O641        O  0.28036281  0.68821183  0.79946244    -0.80000
Cd642      Cd  0.19149104  0.73871668  0.77579470     1.59700
Cd643      Cd  0.18379123  0.69002650  0.68570912     1.59600
O644        O  0.13341125  0.71327221  0.77430625    -0.80000
O645        O  0.22017830  0.72662084  0.72228854    -1.90500
Cd646      Cd  0.27359132  0.69809395  0.73606255     1.59900
O647        O  0.12735844  0.67569561  0.71653878    -0.80000
O648        O  0.32491264  0.72782286  0.71025169    -0.78600
C649        C  0.18232215  0.75686336  0.61751943     0.83900
C650        C  0.18885121  0.83205207  0.75985041     0.83500
O651        O  0.29540109  0.78519695  0.68554239    -0.77600
C652        C  0.25566506  0.69294751  0.83023042     0.84400
O653        O  0.20660991  0.77920443  0.63933428    -0.77700
C654        C  0.11277336  0.68875012  0.75119411     0.84500
C655        C  0.25064961  0.62053366  0.68450233     0.84800
O656        O  0.21566922  0.63470880  0.67131306    -0.80100
C657        C  0.92275868  0.37081280  0.41964579     0.04000
C658        C  0.88735947  0.38651658  0.44012775    -0.12200
C659        C  0.86719542  0.42204034  0.42524391     0.01500
C660        C  0.88273392  0.44211681  0.38978616    -0.10700
C661        C  0.91798579  0.42662874  0.36902347     0.04000
C662        C  0.93799975  0.39099245  0.38413088    -0.10100
H663        H  0.87434505  0.37001836  0.46644279     0.09600
H664        H  0.86622117  0.46857515  0.37719684     0.07100
H665        H  0.96419919  0.37793184  0.36722393     0.07000
C666        C  0.92189047  0.32875401  0.16943678     0.04000
C667        C  0.93859463  0.30847666  0.13449218    -0.12200
C668        C  0.91967160  0.27224076  0.11836863     0.01500
C669        C  0.88485101  0.25544251  0.13915528    -0.10700
C670        C  0.86777838  0.27559562  0.17396001     0.04000
C671        C  0.88628095  0.31186581  0.18877602    -0.10100
H672        H  0.96507854  0.32213509  0.11862279     0.09600
H673        H  0.86922818  0.22842479  0.12666718     0.07100
H674        H  0.87197526  0.32748719  0.21498693     0.07000
O675        O  0.54464409  0.28560570  0.00789033    -0.77600
C676        C  0.93954338  0.33032530  0.43211434     0.83400
O677        O  0.92108606  0.22012296  0.06438039    -0.78700
O678        O  0.88408085  0.21093979  0.41774677    -0.80200
O679        O  0.53290045  0.18825940  0.39551815    -0.80000
O680        O  0.57492728  0.22769899  0.48537270    -0.78600
Zn681      Zn  0.98249813  0.27776911  0.99863526     1.55700
O682        O  0.97275529  0.21014546  0.36793235    -0.80000
Cd683      Cd  0.52461173  0.19703013  0.45888008     1.59700
Cd684      Cd  0.93410070  0.18856506  0.00798516     1.59600
O685        O  0.52508187  0.13920841  0.48448972    -0.80000
O686        O  0.97054419  0.22524625  0.47176317    -1.90500
Cd687      Cd  0.94222866  0.23693052  0.41777896     1.59900
O688        O  0.96610236  0.13263092  0.02091177    -0.80000
O689        O  0.93371221  0.29960478  0.40803959    -0.78600
C690        C  0.93341852  0.25558273  0.07734689     0.83900
C691        C  0.57681103  0.26277241  0.00320869     0.83500
O692        O  0.95730866  0.32645482  0.46738701    -0.77600
C693        C  0.50834864  0.19284194  0.36460618     0.84400
O694        O  0.95666400  0.27852432  0.05507569    -0.78500
C695        C  0.00134527  0.11839407  0.00831549     0.84500
C696        C  0.86314123  0.18700373  0.44116740     0.84800
O697        O  0.87742690  0.17479788  0.47634369    -0.80100
C698        C  0.76550064  0.12114270  0.42260191     0.04000
C699        C  0.74849936  0.14128474  0.38764474    -0.12200
C700        C  0.76849077  0.17618983  0.37084517     0.01500
C701        C  0.80472567  0.19156005  0.38968299    -0.10700
C702        C  0.82182258  0.17269019  0.42523357     0.04000
C703        C  0.80167090  0.13785910  0.44177009    -0.10100
H704        H  0.72164221  0.12824641  0.37176876     0.09600
H705        H  0.82032603  0.21774625  0.37553802     0.07100
H706        H  0.81557090  0.12245215  0.46828233     0.07000
O707        O  0.68307819  0.40126608  0.03589640    -0.77600
C708        C  0.75672960  0.00663805  0.07930734     0.83400
O709        O  0.62604934  0.02231421  0.46726411    -0.78700
O710        O  0.77332907  0.05910130  0.46007539    -0.80200
O711        O  0.79544229  0.41101427  0.43836325    -0.80000
O712        O  0.70457722  0.37157380  0.47709364    -0.78600
Zn713      Zn  0.69136838  0.46258100  0.02658556     1.55700
O714        O  0.82355031  0.47058802  0.45931812    -0.80000
Cd715      Cd  0.73177916  0.42043052  0.44613880     1.59700
Cd716      Cd  0.68292327  0.00968598  0.43636445     1.59600
O717        O  0.70653654  0.41958982  0.38778817    -0.80000
O718        O  0.71885423  0.47393036  0.47389444    -1.90500
Cd719      Cd  0.77320739  0.00148401  0.48577119     1.59900
O720        O  0.67034192  0.47797347  0.38004563    -0.80000
O721        O  0.78176617  0.01065322  0.04877986    -0.78600
C722        C  0.61247140  0.01005731  0.00263807     0.83900
C723        C  0.68734059  0.36962441  0.01266889     0.83500
O724        O  0.72106590  0.48952312  0.07537667    -0.77600
C725        C  0.82674580  0.43502370  0.44263445     0.84400
O726        O  0.63440748  0.48703610  0.02608014    -0.77700
C727        C  0.68288415  0.44289857  0.36630820     0.84500
C728        C  0.74964988  0.08009099  0.43632899     0.84800
O729        O  0.71438551  0.06598725  0.42358729    -0.80100
C730        C  0.51684034  0.07726323  0.02225228     0.04000
C731        C  0.55197473  0.05950809  0.50259804    -0.12200
C732        C  0.57126788  0.02406184  0.01877594     0.01500
C733        C  0.55401883  0.50510770  0.05429594    -0.10700
C734        C  0.51906202  0.02209733  0.07443067     0.04000
C735        C  0.00027345  0.05795684  0.05772031    -0.10100
H736        H  0.56585535  0.07463162  0.47593552     0.09600
H737        H  0.56923926  0.47833893  0.06770753     0.07100
H738        H  0.97401633  0.07213131  0.07354507     0.07000
C739        C  0.67269491  0.37285022  0.27224568     0.04000
C740        C  0.68792239  0.39131840  0.30855053    -0.12200
C741        C  0.66912867  0.42708791  0.32501500     0.01500
C742        C  0.63460295  0.44417299  0.30420626    -0.10700
C743        C  0.61788635  0.42528041  0.26812414     0.04000
C744        C  0.63797326  0.39013744  0.25171870    -0.10100
H745        H  0.71380807  0.37675576  0.32468039     0.09600
H746        H  0.61923338  0.47087585  0.31761174     0.07100
H747        H  0.62487454  0.37446144  0.22492372     0.07000
O748        O  0.89474847  0.03717281  0.18579302    -0.77600
C749        C  0.00042578  0.08164863  0.25918746     0.83400
O750        O  0.51815894  0.47088735  0.12898207    -0.78700
O751        O  0.55533162  0.46316331  0.27533687    -0.80200
O752        O  0.90656818  0.43888931  0.29753661    -0.80000
O753        O  0.86482022  0.47915234  0.20835073    -0.78600
Zn754      Zn  0.95687694  0.02861977  0.19397883     1.55700
O755        O  0.96608397  0.46184644  0.32555952    -0.80000
Cd756      Cd  0.91500512  0.44807378  0.23419490     1.59700
Cd757      Cd  0.50540795  0.43946474  0.18522605     1.59600
O758        O  0.91432133  0.39066210  0.20752256    -0.80000
O759        O  0.96890001  0.47629846  0.22128633    -1.90500
Cd760      Cd  0.49681350  0.48850794  0.27535627     1.59900
O761        O  0.97350953  0.38347765  0.17157506    -0.80000
O762        O  0.50524712  0.05135389  0.28400051    -0.78600
C763        C  0.00528280  0.00593408  0.11550866     0.83900
C764        C  0.86269508  0.01429845  0.19077894     0.83500
O765        O  0.98315835  0.07738677  0.22376606    -0.77600
C766        C  0.93070125  0.44398496  0.32869460     0.84400
O767        O  0.98163240  0.02887501  0.13733285    -0.77700
C768        C  0.93792589  0.36966912  0.18365185     0.84500
C769        C  0.57653080  0.43930125  0.25199669     0.84800
O770        O  0.56227881  0.42654952  0.21696012    -0.80100
C771        C  0.76692630  0.07990882  0.17026674     0.04000
C772        C  0.74965269  0.05899629  0.13587916    -0.12200
C773        C  0.76946183  0.02352539  0.11979665     0.01500
C774        C  0.80551495  0.50809128  0.13910469    -0.10700
C775        C  0.82246308  0.02815221  0.17376894     0.04000
C776        C  0.80338303  0.06387595  0.18904191    -0.10100
H777        H  0.72268617  0.07172645  0.11995047     0.09600
H778        H  0.82149431  0.48157347  0.12595446     0.07100
H779        H  0.81781156  0.07965530  0.21510447     0.07000
C780        C  0.51666440  0.12230160  0.27168744     0.04000
C781        C  0.00162621  0.14094671  0.30809146    -0.12200
C782        C  0.52111747  0.17627620  0.32408054     0.01500
C783        C  0.55578595  0.19283177  0.30372380    -0.10700
C784        C  0.57177856  0.17437029  0.26734054     0.04000
C785        C  0.55130505  0.13949256  0.25085734    -0.10100
H786        H  0.97592606  0.12691856  0.32494009     0.09600
H787        H  0.57120877  0.21938694  0.31744255     0.07100
H788        H  0.56404388  0.12393765  0.22383136     0.07000
C789        C  0.67008542  0.33000491  0.02657148     0.04000
C790        C  0.68599361  0.31063337  0.06202275    -0.12200
C791        C  0.66784686  0.27393608  0.07720478     0.01500
C792        C  0.63358653  0.25674390  0.05581686    -0.10700
C793        C  0.61677675  0.27681776  0.02081149     0.04000
C794        C  0.63531189  0.31318758  0.50615033    -0.10100
H795        H  0.71214295  0.32478762  0.07812772     0.09600
H796        H  0.61829970  0.22936746  0.06782992     0.07100
H797        H  0.62178924  0.32916187  0.47974239     0.07000
O798        O  0.70767702  0.32791548  0.22519609    -0.77600
C799        C  0.82733063  0.26221101  0.19121057     0.83400
O800        O  0.66966757  0.22162190  0.13034814    -0.78700
O801        O  0.77358268  0.14098853  0.20944200    -0.80200
O802        O  0.72051190  0.21118361  0.32668100    -0.80000
O803        O  0.68260744  0.30156922  0.28412455    -0.78600
Zn804      Zn  0.73301602  0.27859032  0.19513733     1.55700
O805        O  0.78036287  0.18821203  0.29946246    -0.80000
Cd806      Cd  0.69149098  0.23871679  0.27579460     1.59700
Cd807      Cd  0.68379136  0.19002646  0.18570899     1.59600
O808        O  0.63341115  0.21327241  0.27430614    -0.80000
O809        O  0.72017829  0.22662077  0.22228851    -1.90500
Cd810      Cd  0.77359137  0.19809407  0.23606264     1.59900
O811        O  0.62735859  0.17569561  0.21653874    -0.80000
O812        O  0.82491263  0.22782292  0.21025186    -0.78600
C813        C  0.68232212  0.25686340  0.11751946     0.83900
C814        C  0.68885111  0.33205216  0.25985028     0.83500
O815        O  0.79540097  0.28519693  0.18554246    -0.77600
C816        C  0.75566510  0.19294762  0.33023043     0.84400
O817        O  0.70660976  0.27920452  0.13933437    -0.77700
C818        C  0.61277339  0.18875019  0.25119401     0.84500
C819        C  0.75064962  0.12053372  0.18450236     0.84800
O820        O  0.71566933  0.13470890  0.17131290    -0.80100
C821        C  0.92275870  0.37081281  0.91964574     0.04000
C822        C  0.88735944  0.38651650  0.94012766    -0.12200
C823        C  0.86719539  0.42204029  0.92524389     0.01500
C824        C  0.88273396  0.44211685  0.88978621    -0.10700
C825        C  0.91798576  0.42662874  0.86902344     0.04000
C826        C  0.93799980  0.39099250  0.88413088    -0.10100
H827        H  0.87434496  0.37001815  0.96644261     0.09600
H828        H  0.86622126  0.46857529  0.87719693     0.07100
H829        H  0.96419922  0.37793192  0.86722392     0.07000
C830        C  0.92189049  0.32875404  0.66943665     0.04000
C831        C  0.93859461  0.30847673  0.63449201    -0.12200
C832        C  0.91967161  0.27224080  0.61836852     0.01500
C833        C  0.88485098  0.25544258  0.63915515    -0.10700
C834        C  0.86777839  0.27559567  0.67395989     0.04000
C835        C  0.88628099  0.31186583  0.68877592    -0.10100
H836        H  0.96507851  0.32213517  0.61862256     0.09600
H837        H  0.86922814  0.22842487  0.62666705     0.07100
H838        H  0.87197534  0.32748717  0.71498687     0.07000
O839        O  0.54464409  0.28560572  0.50789023    -0.77600
C840        C  0.93954338  0.33032529  0.93211426     0.83400
O841        O  0.92108619  0.22012288  0.56438039    -0.78700
O842        O  0.88408089  0.21093970  0.91774669    -0.80200
O843        O  0.53290042  0.18825951  0.89551822    -0.80000
O844        O  0.57492731  0.22769909  0.98537254    -0.78600
Zn845      Zn  0.98249816  0.27776901  0.49863527     1.55700
O846        O  0.97275531  0.21014550  0.86793231    -0.80000
Cd847      Cd  0.52461168  0.19703027  0.95888017     1.59700
Cd848      Cd  0.93410085  0.18856507  0.50798509     1.59600
O849        O  0.52508189  0.13920849  0.98448969    -0.80000
O850        O  0.97054406  0.22524630  0.97176325    -1.90500
Cd851      Cd  0.94222865  0.23693047  0.91777890     1.59900
O852        O  0.96610241  0.13263088  0.52091172    -0.80000
O853        O  0.93371215  0.29960477  0.90803953    -0.78600
C854        C  0.93341854  0.25558270  0.57734685     0.83900
C855        C  0.57681102  0.26277239  0.50320871     0.83500
O856        O  0.95730866  0.32645483  0.96738692    -0.77600
C857        C  0.50834869  0.19284201  0.86460618     0.84400
O858        O  0.95666397  0.27852428  0.55507562    -0.78500
C859        C  0.00134534  0.11839400  0.50831549     0.84500
C860        C  0.86314124  0.18700371  0.94116736     0.84800
O861        O  0.87742680  0.17479798  0.97634372    -0.80100
C862        C  0.76550057  0.12114273  0.92260197     0.04000
C863        C  0.74849931  0.14128479  0.88764479    -0.12200
C864        C  0.76849075  0.17618985  0.87084520     0.01500
C865        C  0.80472569  0.19156004  0.88968298    -0.10700
C866        C  0.82182263  0.17269013  0.92523352     0.04000
C867        C  0.80167090  0.13785908  0.94177009    -0.10100
H868        H  0.72164219  0.12824644  0.87176875     0.09600
H869        H  0.82032606  0.21774623  0.87553804     0.07100
H870        H  0.81557088  0.12245209  0.96828230     0.07000
O871        O  0.68307813  0.40126604  0.53589648    -0.77600
C872        C  0.75672963  0.00663805  0.57930728     0.83400
O873        O  0.62604940  0.02231431  0.96726423    -0.78700
O874        O  0.77332911  0.05910124  0.96007532    -0.80200
O875        O  0.79544227  0.41101411  0.93836333    -0.80000
O876        O  0.70457713  0.37157376  0.97709355    -0.78600
Zn877      Zn  0.69136833  0.46258093  0.52658549     1.55700
O878        O  0.82355028  0.47058788  0.95931820    -0.80000
Cd879      Cd  0.73177914  0.42043045  0.94613884     1.59700
Cd880      Cd  0.68292322  0.00968590  0.93636441     1.59600
O881        O  0.70653649  0.41958998  0.88778811    -0.80000
O882        O  0.71885431  0.47393028  0.97389453    -1.90500
Cd883      Cd  0.77320734  0.00148392  0.98577129     1.59900
O884        O  0.67034188  0.47797360  0.88004550    -0.80000
O885        O  0.78176616  0.01065338  0.54877978    -0.78600
C886        C  0.61247139  0.01005723  0.50263797     0.83900
C887        C  0.68734058  0.36962441  0.51266893     0.83500
O888        O  0.72106591  0.48952305  0.57537660    -0.77600
C889        C  0.82674577  0.43502358  0.94263449     0.84400
O890        O  0.63440749  0.48703611  0.52608006    -0.77700
C891        C  0.68288413  0.44289871  0.86630809     0.84500
C892        C  0.74964988  0.08009096  0.93632898     0.84800
O893        O  0.71438552  0.06598718  0.92358728    -0.80100
C894        C  0.51684032  0.07726316  0.52225230     0.04000
C895        C  0.55197473  0.05950813  0.00259805    -0.12200
C896        C  0.57126785  0.02406174  0.51877589     0.01500
C897        C  0.55401888  0.50510772  0.55429599    -0.10700
C898        C  0.51906202  0.02209728  0.57443072     0.04000
C899        C  0.00027341  0.05795677  0.55772029    -0.10100
H900        H  0.56585537  0.07463166  0.97593547     0.09600
H901        H  0.56923933  0.47833900  0.56770761     0.07100
H902        H  0.97401627  0.07213123  0.57354495     0.07000
C903        C  0.67269488  0.37285018  0.77224571     0.04000
C904        C  0.68792239  0.39131847  0.80855050    -0.12200
C905        C  0.66912865  0.42708802  0.82501489     0.01500
C906        C  0.63460289  0.44417301  0.80420617    -0.10700
C907        C  0.61788632  0.42528039  0.76812408     0.04000
C908        C  0.63797326  0.39013739  0.75171867    -0.10100
H909        H  0.71380805  0.37675593  0.82468039     0.09600
H910        H  0.61923327  0.47087587  0.81761161     0.07100
H911        H  0.62487458  0.37446138  0.72492363     0.07000
O912        O  0.89474850  0.03717275  0.68579285    -0.77600
C913        C  0.00042575  0.08164867  0.75918737     0.83400
O914        O  0.51815913  0.47088746  0.62898227    -0.78700
O915        O  0.55533164  0.46316344  0.77533679    -0.80200
O916        O  0.90656805  0.43888938  0.79753661    -0.80000
O917        O  0.86482019  0.47915232  0.70835071    -0.78600
Zn918      Zn  0.95687691  0.02861977  0.69397878     1.55700
O919        O  0.96608396  0.46184632  0.82555944    -0.80000
Cd920      Cd  0.91500508  0.44807371  0.73419493     1.59700
Cd921      Cd  0.50540795  0.43946467  0.68522612     1.59600
O922        O  0.91432141  0.39066200  0.70752263    -0.80000
O923        O  0.96889998  0.47629843  0.72128633    -1.90500
Cd924      Cd  0.49681347  0.48850800  0.77535627     1.59900
O925        O  0.97350956  0.38347766  0.67157498    -0.80000
O926        O  0.50524711  0.05135393  0.78400045    -0.78600
C927        C  0.00528279  0.00593408  0.61550875     0.83900
C928        C  0.86269510  0.01429844  0.69077889     0.83500
O929        O  0.98315833  0.07738677  0.72376596    -0.77600
C930        C  0.93070120  0.44398494  0.82869456     0.84400
O931        O  0.98163234  0.02887500  0.63733288    -0.77700
C932        C  0.93792594  0.36966910  0.68365180     0.84500
C933        C  0.57653082  0.43930135  0.75199663     0.84800
O934        O  0.56227883  0.42654959  0.71696008    -0.80100
C935        C  0.76692629  0.07990879  0.67026669     0.04000
C936        C  0.74965269  0.05899625  0.63587911    -0.12200
C937        C  0.76946182  0.02352534  0.61979665     0.01500
C938        C  0.80551484  0.50809123  0.63910474    -0.10700
C939        C  0.82246307  0.02815218  0.67376895     0.04000
C940        C  0.80338297  0.06387590  0.68904194    -0.10100
H941        H  0.72268620  0.07172638  0.61995037     0.09600
H942        H  0.82149415  0.48157337  0.62595456     0.07100
H943        H  0.81781141  0.07965525  0.71510454     0.07000
C944        C  0.51666430  0.12230172  0.77168735     0.04000
C945        C  0.00162626  0.14094675  0.80809146    -0.12200
C946        C  0.52111755  0.17627624  0.82408059     0.01500
C947        C  0.55578598  0.19283184  0.80372384    -0.10700
C948        C  0.57177853  0.17437036  0.76734056     0.04000
C949        C  0.55130495  0.13949271  0.75085728    -0.10100
H950        H  0.97592622  0.12691852  0.82494017     0.09600
H951        H  0.57120887  0.21938701  0.81744261     0.07100
H952        H  0.56404379  0.12393781  0.72383128     0.07000
C953        C  0.67008539  0.33000493  0.52657148     0.04000
C954        C  0.68599351  0.31063347  0.56202279    -0.12200
C955        C  0.66784688  0.27393610  0.57720476     0.01500
C956        C  0.63358658  0.25674391  0.55581680    -0.10700
C957        C  0.61677674  0.27681778  0.52081149     0.04000
C958        C  0.63531192  0.31318756  0.00615035    -0.10100
H959        H  0.71214278  0.32478783  0.57812783     0.09600
H960        H  0.61829982  0.22936740  0.56782983     0.07100
H961        H  0.62178929  0.32916187  0.97974241     0.07000
O962        O  0.70767702  0.32791541  0.72519622    -0.77600
C963        C  0.82733063  0.26221104  0.69121045     0.83400
O964        O  0.66966756  0.22162191  0.63034817    -0.78700
O965        O  0.77358273  0.14098848  0.70944190    -0.80200
O966        O  0.72051187  0.21118346  0.82668099    -0.80000
O967        O  0.68260743  0.30156916  0.78412472    -0.78600
Zn968      Zn  0.73301601  0.27859039  0.69513727     1.55700
O969        O  0.78036287  0.18821192  0.79946244    -0.80000
Cd970      Cd  0.69149092  0.23871670  0.77579471     1.59700
Cd971      Cd  0.68379132  0.19002652  0.68570911     1.59600
O972        O  0.63341117  0.21327226  0.77430625    -0.80000
O973        O  0.72017826  0.22662087  0.72228858    -1.90500
Cd974      Cd  0.77359134  0.19809398  0.73606256     1.59900
O975        O  0.62735853  0.17569560  0.71653879    -0.80000
O976        O  0.82491260  0.22782290  0.71025167    -0.78600
C977        C  0.68232215  0.25686339  0.61751943     0.83900
C978        C  0.68885112  0.33205209  0.75985042     0.83500
O979        O  0.79540098  0.28519697  0.68554239    -0.77600
C980        C  0.75566511  0.19294756  0.83023042     0.84400
O981        O  0.70660982  0.27920451  0.63933430    -0.77700
C982        C  0.61277336  0.18875014  0.75119408     0.84500
C983        C  0.75064961  0.12053368  0.68450232     0.84800
O984        O  0.71566926  0.13470886  0.67131300    -0.80100
C985        C  0.92275870  0.87081277  0.41964578     0.04000
C986        C  0.88735945  0.88651651  0.44012769    -0.12200
C987        C  0.86719547  0.92204033  0.42524392     0.01500
C988        C  0.88273397  0.94211680  0.38978618    -0.10700
C989        C  0.91798581  0.92662872  0.36902346     0.04000
C990        C  0.93799981  0.89099246  0.38413091    -0.10100
H991        H  0.87434499  0.87001823  0.46644268     0.09600
H992        H  0.86622124  0.96857516  0.37719687     0.07100
H993        H  0.96419929  0.87793186  0.36722400     0.07000
C994        C  0.92189054  0.82875399  0.16943679     0.04000
C995        C  0.93859466  0.80847665  0.13449217    -0.12200
C996        C  0.91967160  0.77224080  0.11836860     0.01500
C997        C  0.88485099  0.75544255  0.13915526    -0.10700
C998        C  0.86777845  0.77559563  0.17396005     0.04000
C999        C  0.88628102  0.81186581  0.18877605    -0.10100
H1000       H  0.96507863  0.82213509  0.11862278     0.09600
H1001       H  0.86922815  0.72842488  0.12666717     0.07100
H1002       H  0.87197534  0.82748722  0.21498693     0.07000
O1003       O  0.54464407  0.78560566  0.00789033    -0.77600
C1004       C  0.93954338  0.83032527  0.43211434     0.83400
O1005       O  0.92108614  0.72012290  0.06438043    -0.78700
O1006       O  0.88408081  0.71093970  0.41774675    -0.80200
O1007       O  0.53290043  0.68825951  0.39551816    -0.80000
O1008       O  0.57492725  0.72769896  0.48537272    -0.78600
Zn1009     Zn  0.98249811  0.77776910  0.99863525     1.55700
O1010       O  0.97275537  0.71014560  0.36793234    -0.80000
Cd1011     Cd  0.52461172  0.69703013  0.45888010     1.59700
Cd1012     Cd  0.93410074  0.68856504  0.00798515     1.59600
O1013       O  0.52508189  0.63920839  0.48448971    -0.80000
O1014       O  0.97054418  0.72524620  0.47176317    -1.90500
Cd1015     Cd  0.94222859  0.73693051  0.41777897     1.59900
O1016       O  0.96610242  0.63263094  0.02091176    -0.80000
O1017       O  0.93371228  0.79960478  0.40803956    -0.78600
C1018       C  0.93341850  0.75558272  0.07734687     0.83900
C1019       C  0.57681104  0.76277241  0.00320870     0.83500
O1020       O  0.95730857  0.82645477  0.46738707    -0.77600
C1021       C  0.50834863  0.69284204  0.36460618     0.84400
O1022       O  0.95666393  0.77852434  0.05507563    -0.78500
C1023       C  0.00134533  0.61839408  0.00831550     0.84500
C1024       C  0.86314115  0.68700370  0.44116739     0.84800
O1025       O  0.87742676  0.67479788  0.47634371    -0.80100
C1026       C  0.76550061  0.62114268  0.42260188     0.04000
C1027       C  0.74849930  0.64128475  0.38764475    -0.12200
C1028       C  0.76849067  0.67618986  0.37084519     0.01500
C1029       C  0.80472558  0.69156010  0.38968301    -0.10700
C1030       C  0.82182250  0.67269022  0.42523357     0.04000
C1031       C  0.80167084  0.63785913  0.44177009    -0.10100
H1032       H  0.72164211  0.62824640  0.37176874     0.09600
H1033       H  0.82032595  0.71774628  0.37553804     0.07100
H1034       H  0.81557082  0.62245218  0.46828231     0.07000
O1035       O  0.68307817  0.90126612  0.03589641    -0.77600
C1036       C  0.75672970  0.50663805  0.07930733     0.83400
O1037       O  0.62604933  0.52231421  0.46726411    -0.78700
O1038       O  0.77332915  0.55910129  0.46007537    -0.80200
O1039       O  0.79544237  0.91101424  0.43836326    -0.80000
O1040       O  0.70457704  0.87157380  0.47709359    -0.78600
Zn1041     Zn  0.69136822  0.96258100  0.02658556     1.55700
O1042       O  0.82355035  0.97058802  0.45931813    -0.80000
Cd1043     Cd  0.73177922  0.92043048  0.44613880     1.59700
Cd1044     Cd  0.68292317  0.50968596  0.43636444     1.59600
O1045       O  0.70653659  0.91958986  0.38778817    -0.80000
O1046       O  0.71885429  0.97393033  0.47389444    -1.90500
Cd1047     Cd  0.77320740  0.50148399  0.48577120     1.59900
O1048       O  0.67034207  0.97797355  0.38004559    -0.80000
O1049       O  0.78176630  0.51065321  0.04877986    -0.78600
C1050       C  0.61247148  0.51005732  0.00263808     0.83900
C1051       C  0.68734054  0.86962446  0.01266888     0.83500
O1052       O  0.72106578  0.98952314  0.07537668    -0.77600
C1053       C  0.82674585  0.93502370  0.44263446     0.84400
O1054       O  0.63440735  0.98703605  0.02608012    -0.77700
C1055       C  0.68288424  0.94289862  0.36630818     0.84500
C1056       C  0.74964994  0.58009095  0.43632897     0.84800
O1057       O  0.71438555  0.56598717  0.42358729    -0.80100
C1058       C  0.51684039  0.57726326  0.02225231     0.04000
C1059       C  0.55197467  0.55950804  0.50259796    -0.12200
C1060       C  0.57126791  0.52406182  0.01877592     0.01500
C1061       C  0.55401883  0.00510774  0.05429599    -0.10700
C1062       C  0.51906204  0.52209733  0.07443067     0.04000
C1063       C  0.00027341  0.55795686  0.05772031    -0.10100
H1064       H  0.56585523  0.57463152  0.47593538     0.09600
H1065       H  0.56923928  0.97833901  0.06770763     0.07100
H1066       H  0.97401635  0.57213135  0.07354504     0.07000
C1067       C  0.67269497  0.87285023  0.27224568     0.04000
C1068       C  0.68792243  0.89131840  0.30855054    -0.12200
C1069       C  0.66912871  0.92708792  0.32501501     0.01500
C1070       C  0.63460293  0.94417296  0.30420630    -0.10700
C1071       C  0.61788635  0.92528044  0.26812416     0.04000
C1072       C  0.63797330  0.89013746  0.25171870    -0.10100
H1073       H  0.71380812  0.87675577  0.32468042     0.09600
H1074       H  0.61923334  0.97087580  0.31761183     0.07100
H1075       H  0.62487461  0.87446148  0.22492370     0.07000
O1076       O  0.89474850  0.53717276  0.18579301    -0.77600
C1077       C  0.00042580  0.58164862  0.25918747     0.83400
O1078       O  0.51815894  0.97088737  0.12898210    -0.78700
O1079       O  0.55533164  0.96316354  0.27533678    -0.80200
O1080       O  0.90656815  0.93888924  0.29753659    -0.80000
O1081       O  0.86482030  0.97915234  0.20835071    -0.78600
Zn1082     Zn  0.95687700  0.52861975  0.19397884     1.55700
O1083       O  0.96608392  0.96184651  0.32555949    -0.80000
Cd1084     Cd  0.91500521  0.94807376  0.23419490     1.59700
Cd1085     Cd  0.50540782  0.93946474  0.18522606     1.59600
O1086       O  0.91432137  0.89066207  0.20752260    -0.80000
O1087       O  0.96890008  0.97629849  0.22128633    -1.90500
Cd1088     Cd  0.49681336  0.98850805  0.27535625     1.59900
O1089       O  0.97350954  0.88347767  0.17157501    -0.80000
O1090       O  0.50524725  0.55135387  0.28400048    -0.78600
C1091       C  0.00528278  0.50593408  0.11550865     0.83900
C1092       C  0.86269507  0.51429844  0.19077894     0.83500
O1093       O  0.98315842  0.57738674  0.22376605    -0.77600
C1094       C  0.93070123  0.94398495  0.32869458     0.84400
O1095       O  0.98163246  0.52887503  0.13733288    -0.77700
C1096       C  0.93792592  0.86966911  0.18365185     0.84500
C1097       C  0.57653079  0.93930138  0.25199667     0.84800
O1098       O  0.56227873  0.92654957  0.21696016    -0.80100
C1099       C  0.76692634  0.57990883  0.17026673     0.04000
C1100       C  0.74965272  0.55899630  0.13587915    -0.12200
C1101       C  0.76946189  0.52352539  0.11979664     0.01500
C1102       C  0.80551496  0.00809133  0.13910465    -0.10700
C1103       C  0.82246310  0.52815221  0.17376893     0.04000
C1104       C  0.80338308  0.56387597  0.18904188    -0.10100
H1105       H  0.72268622  0.57172644  0.11995048     0.09600
H1106       H  0.82149437  0.98157357  0.12595436     0.07100
H1107       H  0.81781163  0.57965531  0.21510444     0.07000
C1108       C  0.51666431  0.62230164  0.27168740     0.04000
C1109       C  0.00162621  0.64094672  0.30809150    -0.12200
C1110       C  0.52111744  0.67627619  0.32408057     0.01500
C1111       C  0.55578589  0.69283177  0.30372380    -0.10700
C1112       C  0.57177852  0.67437027  0.26734058     0.04000
C1113       C  0.55130503  0.63949254  0.25085738    -0.10100
H1114       H  0.97592610  0.62691858  0.32494014     0.09600
H1115       H  0.57120868  0.71938700  0.31744246     0.07100
H1116       H  0.56404391  0.62393757  0.22383145     0.07000
C1117       C  0.67008535  0.83000500  0.02657148     0.04000
C1118       C  0.68599362  0.81063345  0.06202271    -0.12200
C1119       C  0.66784690  0.77393614  0.07720476     0.01500
C1120       C  0.63358656  0.75674396  0.05581685    -0.10700
C1121       C  0.61677672  0.77681782  0.02081153     0.04000
C1122       C  0.63531189  0.81318752  0.50615031    -0.10100
H1123       H  0.71214301  0.82478771  0.07812765     0.09600
H1124       H  0.61829978  0.72936745  0.06782991     0.07100
H1125       H  0.62178925  0.82916178  0.47974235     0.07000
O1126       O  0.70767710  0.82791547  0.22519609    -0.77600
C1127       C  0.82733069  0.76221106  0.19121059     0.83400
O1128       O  0.66966746  0.72162196  0.13034815    -0.78700
O1129       O  0.77358268  0.64098854  0.20944196    -0.80200
O1130       O  0.72051183  0.71118366  0.32668103    -0.80000
O1131       O  0.68260753  0.80156921  0.28412455    -0.78600
Zn1132     Zn  0.73301612  0.77859031  0.19513733     1.55700
O1133       O  0.78036274  0.68821196  0.29946245    -0.80000
Cd1134     Cd  0.69149103  0.73871677  0.27579458     1.59700
Cd1135     Cd  0.68379121  0.69002644  0.18570899     1.59600
O1136       O  0.63341117  0.71327236  0.27430614    -0.80000
O1137       O  0.72017825  0.72662075  0.22228846    -1.90500
Cd1138     Cd  0.77359129  0.69809405  0.23606262     1.59900
O1139       O  0.62735844  0.67569562  0.21653871    -0.80000
O1140       O  0.82491260  0.72782295  0.21025184    -0.78600
C1141       C  0.68232214  0.75686342  0.11751945     0.83900
C1142       C  0.68885119  0.83205215  0.25985028     0.83500
O1143       O  0.79540108  0.78519703  0.18554250    -0.77600
C1144       C  0.75566501  0.69294763  0.33023044     0.84400
O1145       O  0.70660987  0.77920445  0.13933436    -0.77700
C1146       C  0.61277333  0.68875018  0.25119402     0.84500
C1147       C  0.75064961  0.62053370  0.18450236     0.84800
O1148       O  0.71566928  0.63470885  0.17131296    -0.80100
C1149       C  0.92275868  0.87081280  0.91964574     0.04000
C1150       C  0.88735946  0.88651659  0.94012771    -0.12200
C1151       C  0.86719544  0.92204039  0.92524388     0.01500
C1152       C  0.88273399  0.94211688  0.88978617    -0.10700
C1153       C  0.91798580  0.92662874  0.86902343     0.04000
C1154       C  0.93799979  0.89099248  0.88413089    -0.10100
H1155       H  0.87434501  0.87001837  0.96644271     0.09600
H1156       H  0.86622132  0.96857529  0.87719684     0.07100
H1157       H  0.96419924  0.87793186  0.86722392     0.07000
C1158       C  0.92189046  0.82875406  0.66943662     0.04000
C1159       C  0.93859464  0.80847671  0.63449203    -0.12200
C1160       C  0.91967163  0.77224078  0.61836855     0.01500
C1161       C  0.88485102  0.75544256  0.63915518    -0.10700
C1162       C  0.86777840  0.77559565  0.67395991     0.04000
C1163       C  0.88628095  0.81186586  0.68877588    -0.10100
H1164       H  0.96507855  0.82213514  0.61862262     0.09600
H1165       H  0.86922819  0.72842487  0.62666705     0.07100
H1166       H  0.87197529  0.82748725  0.71498681     0.07000
O1167       O  0.54464414  0.78560574  0.50789023    -0.77600
C1168       C  0.93954333  0.83032527  0.93211427     0.83400
O1169       O  0.92108618  0.72012283  0.56438043    -0.78700
O1170       O  0.88408076  0.71093969  0.91774668    -0.80200
O1171       O  0.53290031  0.68825944  0.89551822    -0.80000
O1172       O  0.57492739  0.72769909  0.98537254    -0.78600
Zn1173     Zn  0.98249814  0.77776899  0.49863527     1.55700
O1174       O  0.97275530  0.71014552  0.86793229    -0.80000
Cd1175     Cd  0.52461174  0.69703026  0.95888016     1.59700
Cd1176     Cd  0.93410073  0.68856505  0.50798507     1.59600
O1177       O  0.52508185  0.63920849  0.98448964    -0.80000
O1178       O  0.97054409  0.72524628  0.97176322    -1.90500
Cd1179     Cd  0.94222854  0.73693044  0.91777890     1.59900
O1180       O  0.96610235  0.63263086  0.52091165    -0.80000
O1181       O  0.93371221  0.79960476  0.90803948    -0.78600
C1182       C  0.93341850  0.75558269  0.57734684     0.83900
C1183       C  0.57681103  0.76277236  0.50320870     0.83500
O1184       O  0.95730854  0.82645480  0.96738697    -0.77600
C1185       C  0.50834857  0.69284199  0.86460618     0.84400
O1186       O  0.95666384  0.77852430  0.55507556    -0.78500
C1187       C  0.00134532  0.61839401  0.50831549     0.84500
C1188       C  0.86314114  0.68700371  0.94116737     0.84800
O1189       O  0.87742675  0.67479798  0.97634373    -0.80100
C1190       C  0.76550059  0.62114267  0.92260195     0.04000
C1191       C  0.74849932  0.64128472  0.88764477    -0.12200
C1192       C  0.76849072  0.67618983  0.87084522     0.01500
C1193       C  0.80472560  0.69156007  0.88968303    -0.10700
C1194       C  0.82182256  0.67269013  0.92523355     0.04000
C1195       C  0.80167090  0.63785903  0.94177008    -0.10100
H1196       H  0.72164223  0.62824633  0.87176873     0.09600
H1197       H  0.82032593  0.71774625  0.87553806     0.07100
H1198       H  0.81557093  0.62245202  0.96828225     0.07000
O1199       O  0.68307818  0.90126603  0.53589652    -0.77600
C1200       C  0.75672967  0.50663809  0.57930726     0.83400
O1201       O  0.62604947  0.52231430  0.96726424    -0.78700
O1202       O  0.77332909  0.55910121  0.96007537    -0.80200
O1203       O  0.79544234  0.91101422  0.93836339    -0.80000
O1204       O  0.70457714  0.87157378  0.97709356    -0.78600
Zn1205     Zn  0.69136835  0.96258091  0.52658548     1.55700
O1206       O  0.82355030  0.97058803  0.95931816    -0.80000
Cd1207     Cd  0.73177920  0.92043045  0.94613886     1.59700
Cd1208     Cd  0.68292330  0.50968588  0.93636441     1.59600
O1209       O  0.70653659  0.91958995  0.88778811    -0.80000
O1210       O  0.71885420  0.97393027  0.97389453    -1.90500
Cd1211     Cd  0.77320742  0.50148389  0.98577130     1.59900
O1212       O  0.67034195  0.97797357  0.88004549    -0.80000
O1213       O  0.78176622  0.51065338  0.54877977    -0.78600
C1214       C  0.61247141  0.51005726  0.50263798     0.83900
C1215       C  0.68734050  0.86962441  0.51266893     0.83500
O1216       O  0.72106587  0.98952304  0.57537660    -0.77600
C1217       C  0.82674582  0.93502372  0.94263448     0.84400
O1218       O  0.63440745  0.98703605  0.52608004    -0.77700
C1219       C  0.68288422  0.94289868  0.86630808     0.84500
C1220       C  0.74964989  0.58009092  0.93632898     0.84800
O1221       O  0.71438555  0.56598716  0.92358723    -0.80100
C1222       C  0.51684030  0.57726315  0.52225229     0.04000
C1223       C  0.55197473  0.55950811  0.00259802    -0.12200
C1224       C  0.57126786  0.52406174  0.51877587     0.01500
C1225       C  0.55401879  0.00510766  0.55429596    -0.10700
C1226       C  0.51906210  0.52209736  0.57443076     0.04000
C1227       C  0.00027341  0.55795682  0.55772030    -0.10100
H1228       H  0.56585529  0.57463158  0.97593538     0.09600
H1229       H  0.56923919  0.97833885  0.56770753     0.07100
H1230       H  0.97401625  0.57213125  0.57354494     0.07000
C1231       C  0.67269492  0.87285015  0.77224571     0.04000
C1232       C  0.68792247  0.89131845  0.80855048    -0.12200
C1233       C  0.66912875  0.92708799  0.82501487     0.01500
C1234       C  0.63460296  0.94417298  0.80420617    -0.10700
C1235       C  0.61788638  0.92528038  0.76812406     0.04000
C1236       C  0.63797331  0.89013737  0.75171866    -0.10100
H1237       H  0.71380813  0.87675589  0.82468037     0.09600
H1238       H  0.61923336  0.97087581  0.81761165     0.07100
H1239       H  0.62487462  0.87446134  0.72492365     0.07000
O1240       O  0.89474845  0.53717272  0.68579286    -0.77600
C1241       C  0.00042579  0.58164865  0.75918737     0.83400
O1242       O  0.51815899  0.97088739  0.62898224    -0.78700
O1243       O  0.55533172  0.96316345  0.77533681    -0.80200
O1244       O  0.90656808  0.93888931  0.79753659    -0.80000
O1245       O  0.86482030  0.97915233  0.70835070    -0.78600
Zn1246     Zn  0.95687693  0.52861976  0.69397877     1.55700
O1247       O  0.96608396  0.96184636  0.82555944    -0.80000
Cd1248     Cd  0.91500516  0.94807370  0.73419494     1.59700
Cd1249     Cd  0.50540795  0.93946465  0.68522613     1.59600
O1250       O  0.91432144  0.89066201  0.70752264    -0.80000
O1251       O  0.96890001  0.97629844  0.72128635    -1.90500
Cd1252     Cd  0.49681351  0.98850798  0.77535628     1.59900
O1253       O  0.97350955  0.88347764  0.67157497    -0.80000
O1254       O  0.50524719  0.55135391  0.78400045    -0.78600
C1255       C  0.00528284  0.50593414  0.61550876     0.83900
C1256       C  0.86269503  0.51429841  0.69077889     0.83500
O1257       O  0.98315839  0.57738673  0.72376595    -0.77600
C1258       C  0.93070122  0.94398491  0.82869455     0.84400
O1259       O  0.98163241  0.52887508  0.63733291    -0.77700
C1260       C  0.93792593  0.86966910  0.68365179     0.84500
C1261       C  0.57653085  0.93930132  0.75199665     0.84800
O1262       O  0.56227881  0.92654953  0.71696012    -0.80100
C1263       C  0.76692631  0.57990881  0.67026669     0.04000
C1264       C  0.74965272  0.55899633  0.63587908    -0.12200
C1265       C  0.76946184  0.52352540  0.61979661     0.01500
C1266       C  0.80551489  0.00809125  0.63910473    -0.10700
C1267       C  0.82246302  0.52815217  0.67376896     0.04000
C1268       C  0.80338298  0.56387591  0.68904193    -0.10100
H1269       H  0.72268622  0.57172649  0.61995038     0.09600
H1270       H  0.82149427  0.98157344  0.62595449     0.07100
H1271       H  0.81781145  0.57965521  0.71510455     0.07000
C1272       C  0.51666438  0.62230167  0.77168735     0.04000
C1273       C  0.00162619  0.64094678  0.80809143    -0.12200
C1274       C  0.52111746  0.67627624  0.82408056     0.01500
C1275       C  0.55578590  0.69283187  0.80372383    -0.10700
C1276       C  0.57177853  0.67437035  0.76734061     0.04000
C1277       C  0.55130501  0.63949268  0.75085732    -0.10100
H1278       H  0.97592611  0.62691860  0.82494009     0.09600
H1279       H  0.57120875  0.71938707  0.81744257     0.07100
H1280       H  0.56404390  0.62393780  0.72383133     0.07000
C1281       C  0.67008532  0.83000493  0.52657150     0.04000
C1282       C  0.68599351  0.81063343  0.56202277    -0.12200
C1283       C  0.66784687  0.77393607  0.57720476     0.01500
C1284       C  0.63358656  0.75674390  0.55581683    -0.10700
C1285       C  0.61677676  0.77681771  0.52081147     0.04000
C1286       C  0.63531184  0.81318764  0.00615037    -0.10100
H1287       H  0.71214281  0.82478777  0.57812778     0.09600
H1288       H  0.61829974  0.72936742  0.56782991     0.07100
H1289       H  0.62178918  0.82916193  0.97974241     0.07000
O1290       O  0.70767705  0.82791538  0.72519623    -0.77600
C1291       C  0.82733065  0.76221100  0.69121045     0.83400
O1292       O  0.66966755  0.72162190  0.63034817    -0.78700
O1293       O  0.77358272  0.64098846  0.70944191    -0.80200
O1294       O  0.72051192  0.71118346  0.82668096    -0.80000
O1295       O  0.68260747  0.80156913  0.78412472    -0.78600
Zn1296     Zn  0.73301607  0.77859037  0.69513726     1.55700
O1297       O  0.78036292  0.68821188  0.79946245    -0.80000
Cd1298     Cd  0.69149100  0.73871668  0.77579471     1.59700
Cd1299     Cd  0.68379121  0.69002649  0.68570911     1.59600
O1300       O  0.63341123  0.71327220  0.77430626    -0.80000
O1301       O  0.72017823  0.72662084  0.72228855    -1.90500
Cd1302     Cd  0.77359127  0.69809395  0.73606257     1.59900
O1303       O  0.62735842  0.67569560  0.71653878    -0.80000
O1304       O  0.82491258  0.72782286  0.71025167    -0.78600
C1305       C  0.68232216  0.75686337  0.61751943     0.83900
C1306       C  0.68885114  0.83205206  0.75985042     0.83500
O1307       O  0.79540102  0.78519695  0.68554239    -0.77600
C1308       C  0.75566513  0.69294752  0.83023041     0.84400
O1309       O  0.70660984  0.77920449  0.63933430    -0.77700
C1310       C  0.61277335  0.68875012  0.75119411     0.84500
C1311       C  0.75064961  0.62053367  0.68450233     0.84800
O1312       O  0.71566925  0.63470884  0.67131302    -0.80100
loop_ 
_geom_bond_atom_site_label_1 
_geom_bond_atom_site_label_2 
_geom_bond_distance 
_geom_bond_site_symmetry_2 
_ccdc_geom_bond_type 
C1            C2   1.404       .  A
C1            C6   1.404       .  A
C1           C20   1.472       .  S
C2            C3   1.402       .  A
C2            H7   1.084       .  S
C3            C4   1.404       .  A
C3           C69   1.470       .  S
C4            C5   1.402       .  A
C4            H8   1.084       .  S
C5            C6   1.406       .  A
C5          C110   1.472       .  S
C6            H9   1.084       .  S
C10          C11   1.407       .  A
C10          C15   1.408       .  A
C10         C112   1.491       .  S
C11          C12   1.417       .  A
C11          H16   1.083       .  S
C12          C13   1.408       .  A
C12          C34   1.491       .  S
C13          C14   1.406       .  A
C13          H17   1.084       .  S
C14          C15   1.398       .  A
C14         C143   1.472       .  S
C15          H18   1.084       .  S
O19          C35   1.275       .  A
O19        Zn681   2.023   1_454  S
C20          O36   1.275       .  A
C20          O33   1.273       .  A
O21          C34   1.283       .  A
O21         Cd28   2.122       .  S
O22          C40   1.272       .  A
O22         Cd31   2.040       .  S
O23          C37   1.275       .  A
O23         Cd27   2.075       .  S
O24         C199   1.273       .  A
O24         Cd27   2.072       .  S
Zn25         O38   1.995   1_556  S
Zn25        O675   2.023   1_556  S
Zn25        O200   2.035       .  S
Zn25        O194   1.944       .  S
O26         C693   1.272       .  A
O26         Cd31   2.067       .  S
Cd27         O29   2.046       .  S
Cd27        O686   1.997   1_455  S
Cd28         O32   2.120       .  S
Cd28        O205   2.124   1_554  S
Cd28        O194   2.032   1_554  S
O29         C859   1.272       .  A
O30        Zn189   1.944       .  S
O30         Cd31   1.994       .  S
O30        Cd683   1.997       .  S
O30        Cd192   2.032       .  S
Cd31         O33   2.071       .  S
O32          C39   1.282       .  A
C34          O38   1.272       .  A
C35         C137   1.468       .  S
C35         O188   1.273   1_554  A
O36        Zn189   2.035       .  S
C37         C126   1.467       .  S
C37         O682   1.272   1_455  A
C39         C730   1.490       .  S
C39         O849   1.272   1_554  A
C40          C46   1.490       .  S
C40          O41   1.283       .  A
O41        Cd192   2.124       .  S
C42          C43   1.409       .  A
C42          C47   1.417       .  A
C42          C72   1.490       .  S
C43          C44   1.407       .  A
C43          H48   1.084       .  S
C44          C45   1.398       .  A
C44         C160   1.473       .  S
C45          C46   1.407       .  A
C45          H49   1.084       .  S
C46          C47   1.404       .  A
C47          H50   1.083       .  S
O51          C67   1.275       .  A
O51         Zn57   2.025       .  S
C52         C117   1.469       .  S
C52          O65   1.274       .  A
C52         O396   1.273   1_545  A
O53         C230   1.281       .  A
O53         Cd60   2.111       .  S
O54          C72   1.272       .  A
O54         Cd63   2.041       .  S
O55          C69   1.274       .  A
O55         Cd59   2.072       .  S
O56         C231   1.272       .  A
O56         Cd59   2.062       .  S
Zn57         O68   2.030       .  S
Zn57         O70   1.984       .  S
Zn57        O226   1.945   1_554  S
O58          C69   1.274       .  A
O58        Cd391   2.076       .  S
Cd59         O61   2.043       .  S
Cd59         O62   1.991       .  S
Cd60         O73   2.122       .  S
Cd60        O392   2.120   1_545  S
Cd60        O390   2.028   1_545  S
O61          C71   1.272       .  A
O62        Zn221   1.945       .  S
O62        Cd388   2.028       .  S
O62        Cd391   1.989       .  S
Cd63        O386   2.076   1_545  S
Cd63        O229   2.066       .  S
Cd63        O390   1.989   1_545  S
O64          C71   1.282       .  A
O64        Cd388   2.120       .  S
O65        Cd227   2.066   1_554  S
C66          C76   1.486       .  S
C66         O217   1.281   1_554  A
C66         O398   1.271   1_545  A
C67         C133   1.466       .  S
C67         O220   1.272   1_554  A
O68         C380   1.273       .  A
O70         C394   1.271       .  A
C71          C85   1.489       .  S
C72          O73   1.283       .  A
C74         C239   1.411       .  A
C74         C735   1.405       .  A
C74         C695   1.490       .  S
C75         C238   1.411       .  A
C75         C240   1.403       .  A
C75          H80   1.083       .  S
C76         C239   1.403       .  A
C76         C405   1.410       .  A
C77         C404   1.410       .  A
C77         C406   1.403       .  A
C77          H81   1.083       .  S
C78         C405   1.403       .  A
C78         C735   1.413       .  A
C78         C763   1.489       .  S
C79         C730   1.405       .  A
C79         C734   1.413       .  A
C79          H82   1.083       .  S
C83          C84   1.399       .  A
C83          C88   1.407       .  A
C83         C158   1.473       .  S
C84          C85   1.407       .  A
C84          H89   1.084       .  S
C85          C86   1.404       .  A
C86          C87   1.416       .  A
C86          H90   1.083       .  S
C87          C88   1.408       .  A
C87         C113   1.490       .  S
C88          H91   1.084       .  S
O92         C108   1.274       .  A
O92         Zn98   2.021       .  S
C93         C780   1.470       .  S
C93         O109   1.273       .  A
C93         O762   1.274       .  A
O94        C1091   1.282       .  A
O94        Cd101   2.116       .  S
O95         C113   1.272       .  A
O95        Cd104   2.041   1_455  S
O96         C110   1.275       .  A
O96        Cd100   2.077       .  S
O97         C436   1.273       .  A
O97        Cd100   2.067       .  S
Zn98        O109   2.028       .  S
Zn98        O111   1.987       .  S
Zn98        O431   1.947   1_545  S
O99         C110   1.274       .  A
O99        Cd760   2.079       .  S
Cd100       O102   2.046       .  S
Cd100       O103   1.994       .  S
Cd101       O114   2.125       .  S
Cd101       O761   2.125   1_455  S
Cd101       O759   2.031   1_455  S
O102        C112   1.273       .  A
O103       Zn426   1.947       .  S
O103       Cd757   2.031       .  S
O103       Cd760   1.993       .  S
Cd104       O755   2.079       .  S
Cd104       O434   2.071   1_655  S
Cd104       O759   1.993       .  S
O105        C112   1.282       .  A
O105       Cd757   2.125       .  S
O106        C749   1.274       .  A
O106       Cd432   2.071   1_445  S
C107        C734   1.489       .  S
C107        O111   1.271       .  A
C107       O1078   1.282   1_545  A
C108        C119   1.467       .  S
C108        O425   1.273   1_545  A
C113        O114   1.283       .  A
C115        C116   1.409       .  A
C115        C120   1.411       .  A
C115        C163   1.486       .  S
C116        C117   1.409       .  A
C116        H121   1.084       .  S
C117        C446   1.400       .  A
C118        C445   1.400       .  A
C118        C447   1.399       .  A
C118        H122   1.084       .  S
C119        C120   1.396       .  A
C119        C446   1.399       .  A
C120        H123   1.084       .  S
C124        C129   1.409       .  A
C124        C781   1.402       .  A
C124        C749   1.470       .  S
C125        C780   1.402       .  A
C125        C782   1.400       .  A
C125        H130   1.084       .  S
C126        C127   1.395       .  A
C126        C781   1.400       .  A
C127        C128   1.410       .  A
C127        H131   1.084       .  S
C128        C129   1.408       .  A
C128        C162   1.484       .  S
C129        H132   1.084       .  S
C133        C134   1.397       .  A
C133        C302   1.400       .  A
C134        C135   1.410       .  A
C134        H139   1.084       .  S
C135        C136   1.407       .  A
C135        C157   1.484       .  S
C136        C137   1.407       .  A
C136        H140   1.084       .  S
C137        C302   1.400       .  A
C138        C297   1.400       .  A
C138        C301   1.400       .  A
C138        H141   1.084       .  S
O142        C158   1.274       .  A
O142       Zn148   2.034       .  S
C143        O159   1.276       .  A
C143        O156   1.273       .  A
O144        C157   1.279       .  A
O144       Cd151   2.103       .  S
O145        C163   1.272       .  A
O145       Cd154   2.036       .  S
O146        C160   1.274       .  A
O146       Cd150   2.082       .  S
O147        C158   1.275       .  A
O147       Cd150   2.071       .  S
Zn148       O159   2.028       .  S
Zn148       O161   1.983       .  S
Zn148       O153   1.940       .  S
O149        C160   1.275       .  A
O149       Cd154   2.076       .  S
Cd150       O152   2.031       .  S
Cd150       O153   1.989       .  S
Cd151       O155   2.110       .  S
Cd151       O164   2.111       .  S
Cd151       O153   2.034       .  S
O152        C162   1.271       .  A
O153       Cd154   1.990       .  S
Cd154       O156   2.076       .  S
O155        C162   1.280       .  A
C157        O161   1.271       .  A
C163        O164   1.280       .  A
C165        C166   1.404       .  A
C165        C170   1.404       .  A
C165        C184   1.472       .  S
C166        C167   1.402       .  A
C166        H171   1.084       .  S
C167        C168   1.404       .  A
C167        C233   1.470       .  S
C168        C169   1.402       .  A
C168        H172   1.084       .  S
C169        C170   1.406       .  A
C169        C274   1.472       .  S
C170        H173   1.084       .  S
C174        C175   1.407       .  A
C174        C179   1.408       .  A
C174        C276   1.491       .  S
C175        C176   1.417       .  A
C175        H180   1.083       .  S
C176        C177   1.408       .  A
C176        C198   1.491       .  S
C177        C178   1.406       .  A
C177        H181   1.084       .  S
C178        C179   1.398       .  A
C178        C307   1.472       .  S
C179        H182   1.084       .  S
O183        C199   1.275       .  A
O183       Zn845   2.023   1_455  S
C184        O200   1.275       .  A
C184        O197   1.273       .  A
O185        C198   1.283       .  A
O185       Cd192   2.122       .  S
O186        C204   1.272       .  A
O186       Cd195   2.040       .  S
O187        C201   1.275       .  A
O187       Cd191   2.075       .  S
O188       Cd191   2.072       .  S
Zn189       O839   2.023       .  S
Zn189       O202   1.995       .  S
O190        C857   1.272       .  A
O190       Cd195   2.067       .  S
Cd191       O193   2.046       .  S
Cd191       O850   1.997   1_455  S
Cd192       O196   2.120       .  S
O193        C695   1.272   1_556  A
O194       Cd847   1.997       .  S
O194       Cd195   1.994       .  S
Cd195       O197   2.071       .  S
O196        C203   1.282       .  A
C198        O202   1.272       .  A
C199        C301   1.468       .  S
C201        C290   1.467       .  S
C201        O846   1.272   1_455  A
C203        C894   1.490       .  S
C203        O685   1.272       .  A
C204        C210   1.490       .  S
C204        O205   1.283       .  A
C206        C207   1.409       .  A
C206        C211   1.417       .  A
C206        C236   1.490       .  S
C207        C208   1.407       .  A
C207        H212   1.084       .  S
C208        C209   1.398       .  A
C208        C324   1.473       .  S
C209        C210   1.407       .  A
C209        H213   1.084       .  S
C210        C211   1.404       .  A
C211        H214   1.083       .  S
O215        C231   1.275       .  A
O215       Zn221   2.025       .  S
C216        C281   1.469       .  S
C216        O560   1.273   1_545  A
C216        O229   1.274       .  A
O217       Cd224   2.111       .  S
O218        C236   1.272       .  A
O218       Cd227   2.041       .  S
O219        C233   1.274       .  A
O219       Cd223   2.072       .  S
O220       Cd223   2.062       .  S
Zn221       O232   2.030       .  S
Zn221       O234   1.984       .  S
O222        C233   1.274       .  A
O222       Cd555   2.076       .  S
Cd223       O225   2.043       .  S
Cd223       O226   1.991       .  S
Cd224       O556   2.120   1_545  S
Cd224       O237   2.122       .  S
Cd224       O554   2.028   1_545  S
O225        C235   1.272       .  A
O226       Cd552   2.028       .  S
O226       Cd555   1.989       .  S
Cd227       O550   2.076   1_545  S
Cd227       O554   1.989   1_545  S
O228        C235   1.282       .  A
O228       Cd552   2.120       .  S
C230        C240   1.486       .  S
C230        O562   1.271   1_545  A
C231        C297   1.466       .  S
O232        C544   1.273       .  A
O234        C558   1.271       .  A
C235        C249   1.489       .  S
C236        O237   1.283       .  A
C238        C899   1.405       .  A
C238        C859   1.490       .  S
C239        H244   1.083   1_554  S
C240        C569   1.410       .  A
C241        C568   1.410       .  A
C241        C570   1.403       .  A
C241        H245   1.083       .  S
C242        C569   1.403       .  A
C242        C899   1.413       .  A
C242        C927   1.489       .  S
C243        C894   1.405       .  A
C243        C898   1.413       .  A
C243        H246   1.083       .  S
C247        C248   1.399       .  A
C247        C252   1.407       .  A
C247        C322   1.473       .  S
C248        C249   1.407       .  A
C248        H253   1.084       .  S
C249        C250   1.404       .  A
C250        C251   1.416       .  A
C250        H254   1.083       .  S
C251        C252   1.408       .  A
C251        C277   1.490       .  S
C252        H255   1.084       .  S
O256        C272   1.274       .  A
O256       Zn262   2.021       .  S
C257        C944   1.470       .  S
C257        O273   1.273       .  A
C257        O926   1.274       .  A
O258       C1255   1.282       .  A
O258       Cd265   2.116       .  S
O259        C277   1.272       .  A
O259       Cd268   2.041   1_455  S
O260        C274   1.275       .  A
O260       Cd264   2.077       .  S
O261        C600   1.273       .  A
O261       Cd264   2.067       .  S
Zn262       O273   2.028       .  S
Zn262       O275   1.987       .  S
Zn262       O595   1.947   1_545  S
O263        C274   1.274       .  A
O263       Cd924   2.079       .  S
Cd264       O266   2.046       .  S
Cd264       O267   1.994       .  S
Cd265       O925   2.125   1_455  S
Cd265       O278   2.125       .  S
Cd265       O923   2.031   1_455  S
O266        C276   1.273       .  A
O267       Zn590   1.947       .  S
O267       Cd921   2.031       .  S
O267       Cd924   1.993       .  S
Cd268       O919   2.079       .  S
Cd268       O598   2.071   1_655  S
Cd268       O923   1.993       .  S
O269        C276   1.282       .  A
O269       Cd921   2.125       .  S
O270        C913   1.274       .  A
O270       Cd596   2.071   1_445  S
C271        C898   1.489       .  S
C271       O1242   1.282   1_545  A
C271        O275   1.271       .  A
C272        C283   1.467       .  S
C272        O589   1.273   1_545  A
C277        O278   1.283       .  A
C279        C280   1.409       .  A
C279        C284   1.411       .  A
C279        C327   1.486       .  S
C280        C281   1.409       .  A
C280        H285   1.084       .  S
C281        C610   1.400       .  A
C282        C609   1.400       .  A
C282        C611   1.399       .  A
C282        H286   1.084       .  S
C283        C610   1.399       .  A
C283        C284   1.396       .  A
C284        H287   1.084       .  S
C288        C945   1.402       .  A
C288        C293   1.409       .  A
C288        C913   1.470       .  S
C289        C944   1.402       .  A
C289        C946   1.400       .  A
C289        H294   1.084       .  S
C290        C945   1.400       .  A
C290        C291   1.395       .  A
C291        C292   1.410       .  A
C291        H295   1.084       .  S
C292        C293   1.408       .  A
C292        C326   1.484       .  S
C293        H296   1.084       .  S
C297        C298   1.397       .  A
C298        C299   1.410       .  A
C298        H303   1.084       .  S
C299        C300   1.407       .  A
C299        C321   1.484       .  S
C300        C301   1.407       .  A
C300        H304   1.084       .  S
C302        H305   1.084   1_554  S
O306        C322   1.274       .  A
O306       Zn312   2.034       .  S
C307        O323   1.276       .  A
C307        O320   1.273       .  A
O308        C321   1.279       .  A
O308       Cd315   2.103       .  S
O309        C327   1.272       .  A
O309       Cd318   2.036       .  S
O310        C324   1.274       .  A
O310       Cd314   2.082       .  S
O311        C322   1.275       .  A
O311       Cd314   2.071       .  S
Zn312       O323   2.028       .  S
Zn312       O325   1.983       .  S
Zn312       O317   1.940       .  S
O313        C324   1.275       .  A
O313       Cd318   2.076       .  S
Cd314       O316   2.031       .  S
Cd314       O317   1.989       .  S
Cd315       O319   2.110       .  S
Cd315       O328   2.111       .  S
Cd315       O317   2.034       .  S
O316        C326   1.271       .  A
O317       Cd318   1.990       .  S
Cd318       O320   2.076       .  S
O319        C326   1.280       .  A
C321        O325   1.271       .  A
C327        O328   1.280       .  A
C329        C330   1.404       .  A
C329        C334   1.404       .  A
C329        C348   1.472       .  S
C330        C331   1.402       .  A
C330        H335   1.084       .  S
C331        C332   1.404       .  A
C331        C397   1.470       .  S
C332        C333   1.402       .  A
C332        H336   1.084       .  S
C333        C334   1.406       .  A
C333        C438   1.472       .  S
C334        H337   1.084       .  S
C338        C339   1.407       .  A
C338        C343   1.408       .  A
C338        C440   1.491       .  S
C339        C340   1.417       .  A
C339        H344   1.083       .  S
C340        C341   1.408       .  A
C340        C362   1.491       .  S
C341        C342   1.406       .  A
C341        H345   1.084       .  S
C342        C343   1.398       .  A
C342        C471   1.472       .  S
C343        H346   1.084       .  S
O347        C363   1.275       .  A
O347      Zn1009   2.023   1_454  S
C348        O364   1.275       .  A
C348        O361   1.273       .  A
O349        C362   1.283       .  A
O349       Cd356   2.122       .  S
O350        C368   1.272       .  A
O350       Cd359   2.040       .  S
O351        C365   1.275       .  A
O351       Cd355   2.075       .  S
O352        C527   1.273       .  A
O352       Cd355   2.072       .  S
Zn353      O1003   2.023   1_556  S
Zn353       O528   2.035       .  S
Zn353       O366   1.995   1_556  S
Zn353       O522   1.944       .  S
O354       C1021   1.272       .  A
O354       Cd359   2.067       .  S
Cd355       O357   2.046       .  S
Cd355      O1014   1.997   1_455  S
Cd356       O360   2.120       .  S
Cd356       O533   2.124   1_554  S
Cd356       O522   2.032   1_554  S
O357       C1187   1.272       .  A
O358       Zn517   1.944       .  S
O358      Cd1011   1.997       .  S
O358       Cd520   2.032       .  S
O358       Cd359   1.994       .  S
Cd359       O361   2.071       .  S
O360        C367   1.282       .  A
C362        O366   1.272       .  A
C363        C465   1.468       .  S
C363        O516   1.273   1_554  A
O364       Zn517   2.035       .  S
C365        C454   1.467       .  S
C365       O1010   1.272   1_455  A
C367       C1058   1.490       .  S
C367       O1177   1.272   1_554  A
C368        C374   1.490       .  S
C368        O369   1.283       .  A
O369       Cd520   2.124       .  S
C370        C371   1.409       .  A
C370        C375   1.417       .  A
C370        C400   1.490       .  S
C371        C372   1.407       .  A
C371        H376   1.084       .  S
C372        C373   1.398       .  A
C372        C488   1.473       .  S
C373        C374   1.407       .  A
C373        H377   1.084       .  S
C374        C375   1.404       .  A
C375        H378   1.083       .  S
O379        C395   1.275       .  A
O379       Zn385   2.025       .  S
C380        C445   1.469       .  S
C380        O393   1.274       .  A
O381        C558   1.281       .  A
O381       Cd388   2.111       .  S
O382        C400   1.272       .  A
O382       Cd391   2.041       .  S
O383        C397   1.274       .  A
O383       Cd387   2.072       .  S
O384        C559   1.272       .  A
O384       Cd387   2.062       .  S
Zn385       O396   2.030       .  S
Zn385       O398   1.984       .  S
Zn385       O554   1.945   1_554  S
O386        C397   1.274       .  A
Cd387       O389   2.043       .  S
Cd387       O390   1.991       .  S
Cd388       O401   2.122       .  S
O389        C399   1.272       .  A
O390       Zn549   1.945       .  S
Cd391       O557   2.066       .  S
O392        C399   1.282       .  A
O393       Cd555   2.066   1_554  S
C394        C404   1.486       .  S
C394        O545   1.281   1_554  A
C395        C461   1.466       .  S
C395        O548   1.272   1_554  A
C399        C413   1.489       .  S
C400        O401   1.283       .  A
C402        C567   1.411       .  A
C402       C1063   1.405       .  A
C402       C1023   1.490       .  S
C403        C566   1.411       .  A
C403        C568   1.403       .  A
C403        H408   1.083       .  S
C404        C567   1.403       .  A
C405        H409   1.083   1_545  S
C406       C1063   1.413       .  A
C406       C1091   1.489       .  S
C407       C1058   1.405       .  A
C407       C1062   1.413       .  A
C407        H410   1.083       .  S
C411        C412   1.399       .  A
C411        C416   1.407       .  A
C411        C486   1.473       .  S
C412        C413   1.407       .  A
C412        H417   1.084       .  S
C413        C414   1.404       .  A
C414        C415   1.416       .  A
C414        H418   1.083       .  S
C415        C416   1.408       .  A
C415        C441   1.490       .  S
C416        H419   1.084       .  S
O420        C436   1.274       .  A
O420       Zn426   2.021       .  S
C421       C1108   1.470       .  S
C421        O437   1.273       .  A
C421       O1090   1.274       .  A
O422        C763   1.282   1_565  A
O422       Cd429   2.116       .  S
O423        C441   1.272       .  A
O423       Cd432   2.041   1_455  S
O424        C438   1.275       .  A
O424       Cd428   2.077       .  S
O425       Cd428   2.067       .  S
Zn426       O437   2.028       .  S
Zn426       O439   1.987       .  S
O427        C438   1.274       .  A
O427      Cd1088   2.079       .  S
Cd428       O430   2.046       .  S
Cd428       O431   1.994       .  S
Cd429      O1089   2.125   1_455  S
Cd429       O442   2.125       .  S
Cd429      O1087   2.031   1_455  S
O430        C440   1.273       .  A
O431      Cd1085   2.031       .  S
O431      Cd1088   1.993       .  S
Cd432      O1083   2.079       .  S
Cd432      O1087   1.993       .  S
O433        C440   1.282       .  A
O433      Cd1085   2.125       .  S
O434       C1077   1.274       .  A
C435       C1062   1.489       .  S
C435        O750   1.282       .  A
C435        O439   1.271       .  A
C436        C447   1.467       .  S
C441        O442   1.283       .  A
C443        C444   1.409       .  A
C443        C448   1.411       .  A
C443        C491   1.486       .  S
C444        C445   1.409       .  A
C444        H449   1.084       .  S
C446        H450   1.084   1_545  S
C447        C448   1.396       .  A
C448        H451   1.084       .  S
C452       C1109   1.402       .  A
C452        C457   1.409       .  A
C452       C1077   1.470       .  S
C453       C1108   1.402       .  A
C453       C1110   1.400       .  A
C453        H458   1.084       .  S
C454       C1109   1.400       .  A
C454        C455   1.395       .  A
C455        C456   1.410       .  A
C455        H459   1.084       .  S
C456        C457   1.408       .  A
C456        C490   1.484       .  S
C457        H460   1.084       .  S
C461        C462   1.397       .  A
C461        C630   1.400       .  A
C462        C463   1.410       .  A
C462        H467   1.084       .  S
C463        C464   1.407       .  A
C463        C485   1.484       .  S
C464        C465   1.407       .  A
C464        H468   1.084       .  S
C465        C630   1.400       .  A
C466        C625   1.400       .  A
C466        C629   1.400       .  A
C466        H469   1.084       .  S
O470        C486   1.274       .  A
O470       Zn476   2.034       .  S
C471        O487   1.276       .  A
C471        O484   1.273       .  A
O472        C485   1.279       .  A
O472       Cd479   2.103       .  S
O473        C491   1.272       .  A
O473       Cd482   2.036       .  S
O474        C488   1.274       .  A
O474       Cd478   2.082       .  S
O475        C486   1.275       .  A
O475       Cd478   2.071       .  S
Zn476       O487   2.028       .  S
Zn476       O489   1.983       .  S
Zn476       O481   1.940       .  S
O477        C488   1.275       .  A
O477       Cd482   2.076       .  S
Cd478       O480   2.031       .  S
Cd478       O481   1.989       .  S
Cd479       O483   2.110       .  S
Cd479       O492   2.111       .  S
Cd479       O481   2.034       .  S
O480        C490   1.271       .  A
O481       Cd482   1.990       .  S
Cd482       O484   2.076       .  S
O483        C490   1.280       .  A
C485        O489   1.271       .  A
C491        O492   1.280       .  A
C493        C494   1.404       .  A
C493        C498   1.404       .  A
C493        C512   1.472       .  S
C494        C495   1.402       .  A
C494        H499   1.084       .  S
C495        C496   1.404       .  A
C495        C561   1.470       .  S
C496        C497   1.402       .  A
C496        H500   1.084       .  S
C497        C498   1.406       .  A
C497        C602   1.472       .  S
C498        H501   1.084       .  S
C502        C503   1.407       .  A
C502        C507   1.408       .  A
C502        C604   1.491       .  S
C503        C504   1.417       .  A
C503        H508   1.083       .  S
C504        C505   1.408       .  A
C504        C526   1.491       .  S
C505        C506   1.406       .  A
C505        H509   1.084       .  S
C506        C507   1.398       .  A
C506        C635   1.472       .  S
C507        H510   1.084       .  S
O511        C527   1.275       .  A
O511      Zn1173   2.023   1_455  S
C512        O528   1.275       .  A
C512        O525   1.273       .  A
O513        C526   1.283       .  A
O513       Cd520   2.122       .  S
O514        C532   1.272       .  A
O514       Cd523   2.040       .  S
O515        C529   1.275       .  A
O515       Cd519   2.075       .  S
O516       Cd519   2.072       .  S
Zn517      O1167   2.023       .  S
Zn517       O530   1.995       .  S
O518       C1185   1.272       .  A
O518       Cd523   2.067       .  S
Cd519       O521   2.046       .  S
Cd519      O1178   1.997   1_455  S
Cd520       O524   2.120       .  S
O521       C1023   1.272   1_556  A
O522      Cd1175   1.997       .  S
O522       Cd523   1.994       .  S
Cd523       O525   2.071       .  S
O524        C531   1.282       .  A
C526        O530   1.272       .  A
C527        C629   1.468       .  S
C529        C618   1.467       .  S
C529       O1174   1.272   1_455  A
C531       C1222   1.490       .  S
C531       O1013   1.272       .  A
C532        C538   1.490       .  S
C532        O533   1.283       .  A
C534        C535   1.409       .  A
C534        C539   1.417       .  A
C534        C564   1.490       .  S
C535        C536   1.407       .  A
C535        H540   1.084       .  S
C536        C537   1.398       .  A
C536        C652   1.473       .  S
C537        C538   1.407       .  A
C537        H541   1.084       .  S
C538        C539   1.404       .  A
C539        H542   1.083       .  S
O543        C559   1.275       .  A
O543       Zn549   2.025       .  S
C544        C609   1.469       .  S
C544        O557   1.274       .  A
O545       Cd552   2.111       .  S
O546        C564   1.272       .  A
O546       Cd555   2.041       .  S
O547        C561   1.274       .  A
O547       Cd551   2.072       .  S
O548       Cd551   2.062       .  S
Zn549       O560   2.030       .  S
Zn549       O562   1.984       .  S
O550        C561   1.274       .  A
Cd551       O553   2.043       .  S
Cd551       O554   1.991       .  S
Cd552       O565   2.122       .  S
O553        C563   1.272       .  A
O556        C563   1.282       .  A
C558        C568   1.486       .  S
C559        C625   1.466       .  S
C563        C577   1.489       .  S
C564        O565   1.283       .  A
C566       C1227   1.405       .  A
C566       C1187   1.490       .  S
C567        H572   1.083   1_554  S
C569        H573   1.083   1_545  S
C570       C1227   1.413       .  A
C570       C1255   1.489       .  S
C571       C1222   1.405       .  A
C571       C1226   1.413       .  A
C571        H574   1.083       .  S
C575        C576   1.399       .  A
C575        C580   1.407       .  A
C575        C650   1.473       .  S
C576        C577   1.407       .  A
C576        H581   1.084       .  S
C577        C578   1.404       .  A
C578        C579   1.416       .  A
C578        H582   1.083       .  S
C579        C580   1.408       .  A
C579        C605   1.490       .  S
C580        H583   1.084       .  S
O584        C600   1.274       .  A
O584       Zn590   2.021       .  S
C585       C1272   1.470       .  S
C585        O601   1.273       .  A
C585       O1254   1.274       .  A
O586        C927   1.282   1_565  A
O586       Cd593   2.116       .  S
O587        C605   1.272       .  A
O587       Cd596   2.041   1_455  S
O588        C602   1.275       .  A
O588       Cd592   2.077       .  S
O589       Cd592   2.067       .  S
Zn590       O601   2.028       .  S
Zn590       O603   1.987       .  S
O591        C602   1.274       .  A
O591      Cd1252   2.079       .  S
Cd592       O594   2.046       .  S
Cd592       O595   1.994       .  S
Cd593      O1253   2.125   1_455  S
Cd593       O606   2.125       .  S
Cd593      O1251   2.031   1_455  S
O594        C604   1.273       .  A
O595      Cd1249   2.031       .  S
O595      Cd1252   1.993       .  S
Cd596      O1247   2.079       .  S
Cd596      O1251   1.993       .  S
O597        C604   1.282       .  A
O597      Cd1249   2.125       .  S
O598       C1241   1.274       .  A
C599       C1226   1.489       .  S
C599        O914   1.282       .  A
C599        O603   1.271       .  A
C600        C611   1.467       .  S
C605        O606   1.283       .  A
C607        C608   1.409       .  A
C607        C612   1.411       .  A
C607        C655   1.486       .  S
C608        C609   1.409       .  A
C608        H613   1.084       .  S
C610        H614   1.084   1_545  S
C611        C612   1.396       .  A
C612        H615   1.084       .  S
C616       C1273   1.402       .  A
C616        C621   1.409       .  A
C616       C1241   1.470       .  S
C617       C1272   1.402       .  A
C617       C1274   1.400       .  A
C617        H622   1.084       .  S
C618       C1273   1.400       .  A
C618        C619   1.395       .  A
C619        C620   1.410       .  A
C619        H623   1.084       .  S
C620        C621   1.408       .  A
C620        C654   1.484       .  S
C621        H624   1.084       .  S
C625        C626   1.397       .  A
C626        C627   1.410       .  A
C626        H631   1.084       .  S
C627        C628   1.407       .  A
C627        C649   1.484       .  S
C628        C629   1.407       .  A
C628        H632   1.084       .  S
C630        H633   1.084   1_554  S
O634        C650   1.274       .  A
O634       Zn640   2.034       .  S
C635        O651   1.276       .  A
C635        O648   1.273       .  A
O636        C649   1.279       .  A
O636       Cd643   2.103       .  S
O637        C655   1.272       .  A
O637       Cd646   2.036       .  S
O638        C652   1.274       .  A
O638       Cd642   2.082       .  S
O639        C650   1.275       .  A
O639       Cd642   2.071       .  S
Zn640       O651   2.028       .  S
Zn640       O653   1.983       .  S
Zn640       O645   1.940       .  S
O641        C652   1.275       .  A
O641       Cd646   2.076       .  S
Cd642       O644   2.031       .  S
Cd642       O645   1.989       .  S
Cd643       O647   2.110       .  S
Cd643       O656   2.111       .  S
Cd643       O645   2.034       .  S
O644        C654   1.271       .  A
O645       Cd646   1.990       .  S
Cd646       O648   2.076       .  S
O647        C654   1.280       .  A
C649        O653   1.271       .  A
C655        O656   1.280       .  A
C657        C658   1.404       .  A
C657        C662   1.404       .  A
C657        C676   1.472       .  S
C658        C659   1.402       .  A
C658        H663   1.084       .  S
C659        C660   1.404       .  A
C659        C725   1.470       .  S
C660        C661   1.402       .  A
C660        H664   1.084       .  S
C661        C662   1.406       .  A
C661        C766   1.472       .  S
C662        H665   1.084       .  S
C666        C667   1.407       .  A
C666        C671   1.408       .  A
C666        C768   1.491       .  S
C667        C668   1.417       .  A
C667        H672   1.083       .  S
C668        C669   1.408       .  A
C668        C690   1.491       .  S
C669        C670   1.406       .  A
C669        H673   1.084       .  S
C670        C671   1.398       .  A
C670        C799   1.472       .  S
C671        H674   1.084       .  S
O675        C691   1.275       .  A
C676        O692   1.275       .  A
C676        O689   1.273       .  A
O677        C690   1.283       .  A
O677       Cd684   2.122       .  S
O678        C696   1.272       .  A
O678       Cd687   2.040       .  S
O679        C693   1.275       .  A
O679       Cd683   2.075       .  S
O680        C855   1.273       .  A
O680       Cd683   2.072       .  S
Zn681       O856   2.035       .  S
Zn681       O694   1.995   1_556  S
Zn681       O850   1.944       .  S
O682       Cd687   2.067       .  S
Cd683       O685   2.046       .  S
Cd684       O688   2.120       .  S
Cd684       O861   2.124   1_554  S
Cd684       O850   2.032   1_554  S
O686       Zn845   1.944       .  S
O686       Cd848   2.032       .  S
O686       Cd687   1.994       .  S
Cd687       O689   2.071       .  S
O688        C695   1.282   1_655  A
C690        O694   1.272       .  A
C691        C793   1.468       .  S
C691        O844   1.273   1_554  A
O692       Zn845   2.035       .  S
C693        C782   1.467       .  S
C696        C702   1.490       .  S
C696        O697   1.283       .  A
O697       Cd848   2.124       .  S
C698        C699   1.409       .  A
C698        C703   1.417       .  A
C698        C728   1.490       .  S
C699        C700   1.407       .  A
C699        H704   1.084       .  S
C700        C701   1.398       .  A
C700        C816   1.473       .  S
C701        C702   1.407       .  A
C701        H705   1.084       .  S
C702        C703   1.404       .  A
C703        H706   1.083       .  S
O707        C723   1.275       .  A
O707       Zn713   2.025       .  S
C708        C773   1.469       .  S
C708       O1052   1.273   1_545  A
C708        O721   1.274       .  A
O709        C886   1.281       .  A
O709       Cd716   2.111       .  S
O710        C728   1.272       .  A
O710       Cd719   2.041       .  S
O711        C725   1.274       .  A
O711       Cd715   2.072       .  S
O712        C887   1.272       .  A
O712       Cd715   2.062       .  S
Zn713       O724   2.030       .  S
Zn713       O726   1.984       .  S
Zn713       O882   1.945   1_554  S
O714        C725   1.274       .  A
O714      Cd1047   2.076       .  S
Cd715       O717   2.043       .  S
Cd715       O718   1.991       .  S
Cd716      O1048   2.120   1_545  S
Cd716       O729   2.122       .  S
Cd716      O1046   2.028   1_545  S
O717        C727   1.272       .  A
O718       Zn877   1.945       .  S
O718      Cd1044   2.028       .  S
O718      Cd1047   1.989       .  S
Cd719      O1042   2.076   1_545  S
Cd719       O885   2.066       .  S
Cd719      O1046   1.989   1_545  S
O720        C727   1.282       .  A
O720      Cd1044   2.120       .  S
O721       Cd883   2.066   1_554  S
C722        C732   1.486       .  S
C722        O873   1.281   1_554  A
C722       O1054   1.271   1_545  A
C723        C789   1.466       .  S
C723        O876   1.272   1_554  A
O724       C1036   1.273       .  A
O726       C1050   1.271       .  A
C727        C741   1.489       .  S
C728        O729   1.283       .  A
C730        C895   1.411       .  A
C731        C894   1.411       .  A
C731        C896   1.403       .  A
C731        H736   1.083       .  S
C732        C895   1.403       .  A
C732       C1061   1.410       .  A
C733       C1060   1.410       .  A
C733       C1062   1.403       .  A
C733        H737   1.083       .  S
C734       C1061   1.403       .  A
C735        H738   1.083   1_455  S
C739        C740   1.399       .  A
C739        C744   1.407       .  A
C739        C814   1.473       .  S
C740        C741   1.407       .  A
C740        H745   1.084       .  S
C741        C742   1.404       .  A
C742        C743   1.416       .  A
C742        H746   1.083       .  S
C743        C744   1.408       .  A
C743        C769   1.490       .  S
C744        H747   1.084       .  S
O748        C764   1.274       .  A
O748       Zn754   2.021       .  S
C749        O765   1.273   1_455  A
O750       Cd757   2.116       .  S
O751        C769   1.272       .  A
O751       Cd760   2.041       .  S
O752        C766   1.275       .  A
O752       Cd756   2.077       .  S
O753       C1092   1.273       .  A
O753       Cd756   2.067       .  S
Zn754       O765   2.028       .  S
Zn754       O767   1.987       .  S
Zn754      O1087   1.947   1_545  S
O755        C766   1.274       .  A
Cd756       O758   2.046       .  S
Cd756       O759   1.994       .  S
Cd757       O770   2.125       .  S
O758        C768   1.273       .  A
O759      Zn1082   1.947       .  S
Cd760      O1090   2.071       .  S
O761        C768   1.282       .  A
O762      Cd1088   2.071   1_545  S
C763        O767   1.271   1_455  A
C764        C775   1.467       .  S
C764       O1081   1.273   1_545  A
C769        O770   1.283       .  A
C771        C772   1.409       .  A
C771        C776   1.411       .  A
C771        C819   1.486       .  S
C772        C773   1.409       .  A
C772        H777   1.084       .  S
C773       C1102   1.400       .  A
C774       C1101   1.400       .  A
C774       C1103   1.399       .  A
C774        H778   1.084       .  S
C775       C1102   1.399       .  A
C775        C776   1.396       .  A
C776        H779   1.084       .  S
C780        C785   1.409       .  A
C781        H786   1.084   1_455  S
C782        C783   1.395       .  A
C783        C784   1.410       .  A
C783        H787   1.084       .  S
C784        C785   1.408       .  A
C784        C818   1.484       .  S
C785        H788   1.084       .  S
C789        C790   1.397       .  A
C789        C958   1.400       .  A
C790        C791   1.410       .  A
C790        H795   1.084       .  S
C791        C792   1.407       .  A
C791        C813   1.484       .  S
C792        C793   1.407       .  A
C792        H796   1.084       .  S
C793        C958   1.400       .  A
C794        C953   1.400       .  A
C794        C957   1.400       .  A
C794        H797   1.084       .  S
O798        C814   1.274       .  A
O798       Zn804   2.034       .  S
C799        O815   1.276       .  A
C799        O812   1.273       .  A
O800        C813   1.279       .  A
O800       Cd807   2.103       .  S
O801        C819   1.272       .  A
O801       Cd810   2.036       .  S
O802        C816   1.274       .  A
O802       Cd806   2.082       .  S
O803        C814   1.275       .  A
O803       Cd806   2.071       .  S
Zn804       O815   2.028       .  S
Zn804       O817   1.983       .  S
Zn804       O809   1.940       .  S
O805        C816   1.275       .  A
O805       Cd810   2.076       .  S
Cd806       O808   2.031       .  S
Cd806       O809   1.989       .  S
Cd807       O811   2.110       .  S
Cd807       O820   2.111       .  S
Cd807       O809   2.034       .  S
O808        C818   1.271       .  A
O809       Cd810   1.990       .  S
Cd810       O812   2.076       .  S
O811        C818   1.280       .  A
C813        O817   1.271       .  A
C819        O820   1.280       .  A
C821        C822   1.404       .  A
C821        C826   1.404       .  A
C821        C840   1.472       .  S
C822        C823   1.402       .  A
C822        H827   1.084       .  S
C823        C824   1.404       .  A
C823        C889   1.470       .  S
C824        C825   1.402       .  A
C824        H828   1.084       .  S
C825        C826   1.406       .  A
C825        C930   1.472       .  S
C826        H829   1.084       .  S
C830        C831   1.407       .  A
C830        C835   1.408       .  A
C830        C932   1.491       .  S
C831        C832   1.417       .  A
C831        H836   1.083       .  S
C832        C833   1.408       .  A
C832        C854   1.491       .  S
C833        C834   1.406       .  A
C833        H837   1.084       .  S
C834        C835   1.398       .  A
C834        C963   1.472       .  S
C835        H838   1.084       .  S
O839        C855   1.275       .  A
C840        O856   1.275       .  A
C840        O853   1.273       .  A
O841        C854   1.283       .  A
O841       Cd848   2.122       .  S
O842        C860   1.272       .  A
O842       Cd851   2.040       .  S
O843        C857   1.275       .  A
O843       Cd847   2.075       .  S
O844       Cd847   2.072       .  S
Zn845       O858   1.995       .  S
O846       Cd851   2.067       .  S
Cd847       O849   2.046       .  S
Cd848       O852   2.120       .  S
O850       Cd851   1.994       .  S
Cd851       O853   2.071       .  S
O852        C859   1.282   1_655  A
C854        O858   1.272       .  A
C855        C957   1.468       .  S
C857        C946   1.467       .  S
C860        C866   1.490       .  S
C860        O861   1.283       .  A
C862        C863   1.409       .  A
C862        C867   1.417       .  A
C862        C892   1.490       .  S
C863        C864   1.407       .  A
C863        H868   1.084       .  S
C864        C865   1.398       .  A
C864        C980   1.473       .  S
C865        C866   1.407       .  A
C865        H869   1.084       .  S
C866        C867   1.404       .  A
C867        H870   1.083       .  S
O871        C887   1.275       .  A
O871       Zn877   2.025       .  S
C872        C937   1.469       .  S
C872       O1216   1.273   1_545  A
C872        O885   1.274       .  A
O873       Cd880   2.111       .  S
O874        C892   1.272       .  A
O874       Cd883   2.041       .  S
O875        C889   1.274       .  A
O875       Cd879   2.072       .  S
O876       Cd879   2.062       .  S
Zn877       O888   2.030       .  S
Zn877       O890   1.984       .  S
O878        C889   1.274       .  A
O878      Cd1211   2.076       .  S
Cd879       O881   2.043       .  S
Cd879       O882   1.991       .  S
Cd880      O1212   2.120   1_545  S
Cd880       O893   2.122       .  S
Cd880      O1210   2.028   1_545  S
O881        C891   1.272       .  A
O882      Cd1208   2.028       .  S
O882      Cd1211   1.989       .  S
Cd883      O1206   2.076   1_545  S
Cd883      O1210   1.989   1_545  S
O884        C891   1.282       .  A
O884      Cd1208   2.120       .  S
C886        C896   1.486       .  S
C886       O1218   1.271   1_545  A
C887        C953   1.466       .  S
O888       C1200   1.273       .  A
O890       C1214   1.271       .  A
C891        C905   1.489       .  S
C892        O893   1.283       .  A
C895        H900   1.083   1_554  S
C896       C1225   1.410       .  A
C897       C1224   1.410       .  A
C897       C1226   1.403       .  A
C897        H901   1.083       .  S
C898       C1225   1.403       .  A
C899        H902   1.083   1_455  S
C903        C904   1.399       .  A
C903        C908   1.407       .  A
C903        C978   1.473       .  S
C904        C905   1.407       .  A
C904        H909   1.084       .  S
C905        C906   1.404       .  A
C906        C907   1.416       .  A
C906        H910   1.083       .  S
C907        C908   1.408       .  A
C907        C933   1.490       .  S
C908        H911   1.084       .  S
O912        C928   1.274       .  A
O912       Zn918   2.021       .  S
C913        O929   1.273   1_455  A
O914       Cd921   2.116       .  S
O915        C933   1.272       .  A
O915       Cd924   2.041       .  S
O916        C930   1.275       .  A
O916       Cd920   2.077       .  S
O917       C1256   1.273       .  A
O917       Cd920   2.067       .  S
Zn918       O929   2.028       .  S
Zn918       O931   1.987       .  S
Zn918      O1251   1.947   1_545  S
O919        C930   1.274       .  A
Cd920       O922   2.046       .  S
Cd920       O923   1.994       .  S
Cd921       O934   2.125       .  S
O922        C932   1.273       .  A
O923      Zn1246   1.947       .  S
Cd924      O1254   2.071       .  S
O925        C932   1.282       .  A
O926      Cd1252   2.071   1_545  S
C927        O931   1.271   1_455  A
C928        C939   1.467       .  S
C928       O1245   1.273   1_545  A
C933        O934   1.283       .  A
C935        C936   1.409       .  A
C935        C940   1.411       .  A
C935        C983   1.486       .  S
C936        C937   1.409       .  A
C936        H941   1.084       .  S
C937       C1266   1.400       .  A
C938       C1265   1.400       .  A
C938       C1267   1.399       .  A
C938        H942   1.084       .  S
C939       C1266   1.399       .  A
C939        C940   1.396       .  A
C940        H943   1.084       .  S
C944        C949   1.409       .  A
C945        H950   1.084   1_455  S
C946        C947   1.395       .  A
C947        C948   1.410       .  A
C947        H951   1.084       .  S
C948        C949   1.408       .  A
C948        C982   1.484       .  S
C949        H952   1.084       .  S
C953        C954   1.397       .  A
C954        C955   1.410       .  A
C954        H959   1.084       .  S
C955        C956   1.407       .  A
C955        C977   1.484       .  S
C956        C957   1.407       .  A
C956        H960   1.084       .  S
C958        H961   1.084   1_554  S
O962        C978   1.274       .  A
O962       Zn968   2.034       .  S
C963        O979   1.276       .  A
C963        O976   1.273       .  A
O964        C977   1.279       .  A
O964       Cd971   2.103       .  S
O965        C983   1.272       .  A
O965       Cd974   2.036       .  S
O966        C980   1.274       .  A
O966       Cd970   2.082       .  S
O967        C978   1.275       .  A
O967       Cd970   2.071       .  S
Zn968       O979   2.028       .  S
Zn968       O981   1.983       .  S
Zn968       O973   1.940       .  S
O969        C980   1.275       .  A
O969       Cd974   2.076       .  S
Cd970       O972   2.031       .  S
Cd970       O973   1.989       .  S
Cd971       O975   2.110       .  S
Cd971       O984   2.111       .  S
Cd971       O973   2.034       .  S
O972        C982   1.271       .  A
O973       Cd974   1.990       .  S
Cd974       O976   2.076       .  S
O975        C982   1.280       .  A
C977        O981   1.271       .  A
C983        O984   1.280       .  A
C985        C986   1.404       .  A
C985        C990   1.404       .  A
C985       C1004   1.472       .  S
C986        C987   1.402       .  A
C986        H991   1.084       .  S
C987        C988   1.404       .  A
C987       C1053   1.470       .  S
C988        C989   1.402       .  A
C988        H992   1.084       .  S
C989        C990   1.406       .  A
C989       C1094   1.472       .  S
C990        H993   1.084       .  S
C994        C995   1.407       .  A
C994        C999   1.408       .  A
C994       C1096   1.491       .  S
C995        C996   1.417       .  A
C995       H1000   1.083       .  S
C996        C997   1.408       .  A
C996       C1018   1.491       .  S
C997        C998   1.406       .  A
C997       H1001   1.084       .  S
C998        C999   1.398       .  A
C998       C1127   1.472       .  S
C999       H1002   1.084       .  S
O1003      C1019   1.275       .  A
C1004      O1020   1.275       .  A
C1004      O1017   1.273       .  A
O1005      C1018   1.283       .  A
O1005     Cd1012   2.122       .  S
O1006      C1024   1.272       .  A
O1006     Cd1015   2.040       .  S
O1007      C1021   1.275       .  A
O1007     Cd1011   2.075       .  S
O1008      C1183   1.273       .  A
O1008     Cd1011   2.072       .  S
Zn1009     O1184   2.035       .  S
Zn1009     O1022   1.995   1_556  S
Zn1009     O1178   1.944       .  S
O1010     Cd1015   2.067       .  S
Cd1011     O1013   2.046       .  S
Cd1012     O1016   2.120       .  S
Cd1012     O1189   2.124   1_554  S
Cd1012     O1178   2.032   1_554  S
O1014     Zn1173   1.944       .  S
O1014     Cd1176   2.032       .  S
O1014     Cd1015   1.994       .  S
Cd1015     O1017   2.071       .  S
O1016      C1023   1.282   1_655  A
C1018      O1022   1.272       .  A
C1019      C1121   1.468       .  S
C1019      O1172   1.273   1_554  A
O1020     Zn1173   2.035       .  S
C1021      C1110   1.467       .  S
C1024      C1030   1.490       .  S
C1024      O1025   1.283       .  A
O1025     Cd1176   2.124       .  S
C1026      C1027   1.409       .  A
C1026      C1031   1.417       .  A
C1026      C1056   1.490       .  S
C1027      C1028   1.407       .  A
C1027      H1032   1.084       .  S
C1028      C1029   1.398       .  A
C1028      C1144   1.473       .  S
C1029      C1030   1.407       .  A
C1029      H1033   1.084       .  S
C1030      C1031   1.404       .  A
C1031      H1034   1.083       .  S
O1035      C1051   1.275       .  A
O1035     Zn1041   2.025       .  S
C1036      C1101   1.469       .  S
C1036      O1049   1.274       .  A
O1037      C1214   1.281       .  A
O1037     Cd1044   2.111       .  S
O1038      C1056   1.272       .  A
O1038     Cd1047   2.041       .  S
O1039      C1053   1.274       .  A
O1039     Cd1043   2.072       .  S
O1040      C1215   1.272       .  A
O1040     Cd1043   2.062       .  S
Zn1041     O1052   2.030       .  S
Zn1041     O1054   1.984       .  S
Zn1041     O1210   1.945   1_554  S
O1042      C1053   1.274       .  A
Cd1043     O1045   2.043       .  S
Cd1043     O1046   1.991       .  S
Cd1044     O1057   2.122       .  S
O1045      C1055   1.272       .  A
O1046     Zn1205   1.945       .  S
Cd1047     O1213   2.066       .  S
O1048      C1055   1.282       .  A
O1049     Cd1211   2.066   1_554  S
C1050      C1060   1.486       .  S
C1050      O1201   1.281   1_554  A
C1051      C1117   1.466       .  S
C1051      O1204   1.272   1_554  A
C1055      C1069   1.489       .  S
C1056      O1057   1.283       .  A
C1058      C1223   1.411       .  A
C1059      C1222   1.411       .  A
C1059      C1224   1.403       .  A
C1059      H1064   1.083       .  S
C1060      C1223   1.403       .  A
C1061      H1065   1.083   1_545  S
C1063      H1066   1.083   1_455  S
C1067      C1068   1.399       .  A
C1067      C1072   1.407       .  A
C1067      C1142   1.473       .  S
C1068      C1069   1.407       .  A
C1068      H1073   1.084       .  S
C1069      C1070   1.404       .  A
C1070      C1071   1.416       .  A
C1070      H1074   1.083       .  S
C1071      C1072   1.408       .  A
C1071      C1097   1.490       .  S
C1072      H1075   1.084       .  S
O1076      C1092   1.274       .  A
O1076     Zn1082   2.021       .  S
C1077      O1093   1.273   1_455  A
O1078     Cd1085   2.116       .  S
O1079      C1097   1.272       .  A
O1079     Cd1088   2.041       .  S
O1080      C1094   1.275       .  A
O1080     Cd1084   2.077       .  S
O1081     Cd1084   2.067       .  S
Zn1082     O1093   2.028       .  S
Zn1082     O1095   1.987       .  S
O1083      C1094   1.274       .  A
Cd1084     O1086   2.046       .  S
Cd1084     O1087   1.994       .  S
Cd1085     O1098   2.125       .  S
O1086      C1096   1.273       .  A
O1089      C1096   1.282       .  A
C1091      O1095   1.271   1_455  A
C1092      C1103   1.467       .  S
C1097      O1098   1.283       .  A
C1099      C1100   1.409       .  A
C1099      C1104   1.411       .  A
C1099      C1147   1.486       .  S
C1100      C1101   1.409       .  A
C1100      H1105   1.084       .  S
C1102      H1106   1.084   1_545  S
C1103      C1104   1.396       .  A
C1104      H1107   1.084       .  S
C1108      C1113   1.409       .  A
C1109      H1114   1.084   1_455  S
C1110      C1111   1.395       .  A
C1111      C1112   1.410       .  A
C1111      H1115   1.084       .  S
C1112      C1113   1.408       .  A
C1112      C1146   1.484       .  S
C1113      H1116   1.084       .  S
C1117      C1118   1.397       .  A
C1117      C1286   1.400       .  A
C1118      C1119   1.410       .  A
C1118      H1123   1.084       .  S
C1119      C1120   1.407       .  A
C1119      C1141   1.484       .  S
C1120      C1121   1.407       .  A
C1120      H1124   1.084       .  S
C1121      C1286   1.400       .  A
C1122      C1281   1.400       .  A
C1122      C1285   1.400       .  A
C1122      H1125   1.084       .  S
O1126      C1142   1.274       .  A
O1126     Zn1132   2.034       .  S
C1127      O1143   1.276       .  A
C1127      O1140   1.273       .  A
O1128      C1141   1.279       .  A
O1128     Cd1135   2.103       .  S
O1129      C1147   1.272       .  A
O1129     Cd1138   2.036       .  S
O1130      C1144   1.274       .  A
O1130     Cd1134   2.082       .  S
O1131      C1142   1.275       .  A
O1131     Cd1134   2.071       .  S
Zn1132     O1143   2.028       .  S
Zn1132     O1145   1.983       .  S
Zn1132     O1137   1.940       .  S
O1133      C1144   1.275       .  A
O1133     Cd1138   2.076       .  S
Cd1134     O1136   2.031       .  S
Cd1134     O1137   1.989       .  S
Cd1135     O1139   2.110       .  S
Cd1135     O1148   2.111       .  S
Cd1135     O1137   2.034       .  S
O1136      C1146   1.271       .  A
O1137     Cd1138   1.990       .  S
Cd1138     O1140   2.076       .  S
O1139      C1146   1.280       .  A
C1141      O1145   1.271       .  A
C1147      O1148   1.280       .  A
C1149      C1150   1.404       .  A
C1149      C1154   1.404       .  A
C1149      C1168   1.472       .  S
C1150      C1151   1.402       .  A
C1150      H1155   1.084       .  S
C1151      C1152   1.404       .  A
C1151      C1217   1.470       .  S
C1152      C1153   1.402       .  A
C1152      H1156   1.084       .  S
C1153      C1154   1.406       .  A
C1153      C1258   1.472       .  S
C1154      H1157   1.084       .  S
C1158      C1159   1.407       .  A
C1158      C1163   1.408       .  A
C1158      C1260   1.491       .  S
C1159      C1160   1.417       .  A
C1159      H1164   1.083       .  S
C1160      C1161   1.408       .  A
C1160      C1182   1.491       .  S
C1161      C1162   1.406       .  A
C1161      H1165   1.084       .  S
C1162      C1163   1.398       .  A
C1162      C1291   1.472       .  S
C1163      H1166   1.084       .  S
O1167      C1183   1.275       .  A
C1168      O1184   1.275       .  A
C1168      O1181   1.273       .  A
O1169      C1182   1.283       .  A
O1169     Cd1176   2.122       .  S
O1170      C1188   1.272       .  A
O1170     Cd1179   2.040       .  S
O1171      C1185   1.275       .  A
O1171     Cd1175   2.075       .  S
O1172     Cd1175   2.072       .  S
Zn1173     O1186   1.995       .  S
O1174     Cd1179   2.067       .  S
Cd1175     O1177   2.046       .  S
Cd1176     O1180   2.120       .  S
O1178     Cd1179   1.994       .  S
Cd1179     O1181   2.071       .  S
O1180      C1187   1.282   1_655  A
C1182      O1186   1.272       .  A
C1183      C1285   1.468       .  S
C1185      C1274   1.467       .  S
C1188      C1194   1.490       .  S
C1188      O1189   1.283       .  A
C1190      C1191   1.409       .  A
C1190      C1195   1.417       .  A
C1190      C1220   1.490       .  S
C1191      C1192   1.407       .  A
C1191      H1196   1.084       .  S
C1192      C1193   1.398       .  A
C1192      C1308   1.473       .  S
C1193      C1194   1.407       .  A
C1193      H1197   1.084       .  S
C1194      C1195   1.404       .  A
C1195      H1198   1.083       .  S
O1199      C1215   1.275       .  A
O1199     Zn1205   2.025       .  S
C1200      C1265   1.469       .  S
C1200      O1213   1.274       .  A
O1201     Cd1208   2.111       .  S
O1202      C1220   1.272       .  A
O1202     Cd1211   2.041       .  S
O1203      C1217   1.274       .  A
O1203     Cd1207   2.072       .  S
O1204     Cd1207   2.062       .  S
Zn1205     O1216   2.030       .  S
Zn1205     O1218   1.984       .  S
O1206      C1217   1.274       .  A
Cd1207     O1209   2.043       .  S
Cd1207     O1210   1.991       .  S
Cd1208     O1221   2.122       .  S
O1209      C1219   1.272       .  A
O1212      C1219   1.282       .  A
C1214      C1224   1.486       .  S
C1215      C1281   1.466       .  S
C1219      C1233   1.489       .  S
C1220      O1221   1.283       .  A
C1223      H1228   1.083   1_554  S
C1225      H1229   1.083   1_545  S
C1227      H1230   1.083   1_455  S
C1231      C1232   1.399       .  A
C1231      C1236   1.407       .  A
C1231      C1306   1.473       .  S
C1232      C1233   1.407       .  A
C1232      H1237   1.084       .  S
C1233      C1234   1.404       .  A
C1234      C1235   1.416       .  A
C1234      H1238   1.083       .  S
C1235      C1236   1.408       .  A
C1235      C1261   1.490       .  S
C1236      H1239   1.084       .  S
O1240      C1256   1.274       .  A
O1240     Zn1246   2.021       .  S
C1241      O1257   1.273   1_455  A
O1242     Cd1249   2.116       .  S
O1243      C1261   1.272       .  A
O1243     Cd1252   2.041       .  S
O1244      C1258   1.275       .  A
O1244     Cd1248   2.077       .  S
O1245     Cd1248   2.067       .  S
Zn1246     O1257   2.028       .  S
Zn1246     O1259   1.987       .  S
O1247      C1258   1.274       .  A
Cd1248     O1250   2.046       .  S
Cd1248     O1251   1.994       .  S
Cd1249     O1262   2.125       .  S
O1250      C1260   1.273       .  A
O1253      C1260   1.282       .  A
C1255      O1259   1.271   1_455  A
C1256      C1267   1.467       .  S
C1261      O1262   1.283       .  A
C1263      C1264   1.409       .  A
C1263      C1268   1.411       .  A
C1263      C1311   1.486       .  S
C1264      C1265   1.409       .  A
C1264      H1269   1.084       .  S
C1266      H1270   1.084   1_545  S
C1267      C1268   1.396       .  A
C1268      H1271   1.084       .  S
C1272      C1277   1.409       .  A
C1273      H1278   1.084   1_455  S
C1274      C1275   1.395       .  A
C1275      C1276   1.410       .  A
C1275      H1279   1.084       .  S
C1276      C1277   1.408       .  A
C1276      C1310   1.484       .  S
C1277      H1280   1.084       .  S
C1281      C1282   1.397       .  A
C1282      C1283   1.410       .  A
C1282      H1287   1.084       .  S
C1283      C1284   1.407       .  A
C1283      C1305   1.484       .  S
C1284      C1285   1.407       .  A
C1284      H1288   1.084       .  S
C1286      H1289   1.084   1_554  S
O1290      C1306   1.274       .  A
O1290     Zn1296   2.034       .  S
C1291      O1307   1.276       .  A
C1291      O1304   1.273       .  A
O1292      C1305   1.279       .  A
O1292     Cd1299   2.103       .  S
O1293      C1311   1.272       .  A
O1293     Cd1302   2.036       .  S
O1294      C1308   1.274       .  A
O1294     Cd1298   2.082       .  S
O1295      C1306   1.275       .  A
O1295     Cd1298   2.071       .  S
Zn1296     O1307   2.028       .  S
Zn1296     O1309   1.983       .  S
Zn1296     O1301   1.940       .  S
O1297      C1308   1.275       .  A
O1297     Cd1302   2.076       .  S
Cd1298     O1300   2.031       .  S
Cd1298     O1301   1.989       .  S
Cd1299     O1303   2.110       .  S
Cd1299     O1312   2.111       .  S
Cd1299     O1301   2.034       .  S
O1300      C1310   1.271       .  A
O1301     Cd1302   1.990       .  S
Cd1302     O1304   2.076       .  S
O1303      C1310   1.280       .  A
C1305      O1309   1.271       .  A
C1311      O1312   1.280       .  A
