geometry optimzed in LAMMPS
_audit_creation_date              2020-12-01 
_audit_creation_method            'lammps2cif' 
_symmetry_space_group_name_H-M    'P1' 
_symmetry_Int_Tables_number       1 
_symmetry_cell_setting            triclinic 
loop_ 
_symmetry_equiv_pos_as_xyz 
  x,y,z 
_cell_length_a                    35.58323698 
_cell_length_b                    35.59323784143486 
_cell_length_c                    35.57839267076569 
_cell_angle_alpha                 89.99445405318727 
_cell_angle_beta                  89.77994087360777 
_cell_angle_gamma                 89.99437654204532 
loop_ 
_atom_site_label 
_atom_site_type_symbol 
_atom_site_fract_x 
_atom_site_fract_y 
_atom_site_fract_z 
_atom_site_charge 
C1          C  0.09072384  0.09244574  0.09093658     0.86500
C2          C  0.06819228  0.11898554  0.11700251    -0.53800
C3          C  0.09014407  0.14190245  0.13881678     0.09400
C4          C  0.13260969  0.13605614  0.13275523     0.20300
C5          C  0.11677762  0.11895152  0.06835677    -0.54500
C6          C  0.13862863  0.14186253  0.09027538     0.09500
C7          C  0.11734970  0.07100508  0.11754985    -0.54000
C8          C  0.13931427  0.09376496  0.13947623     0.10100
H9          H  0.03769788  0.11970274  0.11797306     0.14600
H10         H  0.15038414  0.15454767  0.15049948     0.00300
H11         H  0.11771448  0.11965121  0.03785902     0.14900
H12         H  0.11870159  0.04055733  0.11892636     0.14700
C13         C  0.90257914  0.09720688  0.90284631     0.86500
C14         C  0.92480186  0.12348648  0.87656452    -0.53800
C15         C  0.90260557  0.14559273  0.85435294     0.09400
C16         C  0.86016743  0.13950152  0.86054350     0.20300
C17         C  0.87627976  0.12340647  0.92514145    -0.54500
C18         C  0.85401292  0.14551210  0.90300195     0.09500
C19         C  0.87638272  0.07491842  0.87662767    -0.54000
C20         C  0.85416318  0.09712005  0.85446980     0.10100
H21         H  0.95529261  0.12453587  0.87559368     0.14600
H22         H  0.84214912  0.15753367  0.84256906     0.00300
H23         H  0.87535006  0.12441654  0.95563781     0.14900
H24         H  0.87548334  0.04443945  0.87566296     0.14700
C25         C  0.90853757  0.90926291  0.08970153     0.86500
C26         C  0.88203519  0.93167528  0.11582269    -0.53800
C27         C  0.85893398  0.90969008  0.13751582     0.09400
C28         C  0.86459553  0.86722233  0.13126212     0.20300
C29         C  0.92979448  0.88246639  0.11617559    -0.54500
C30         C  0.90687009  0.86036257  0.13788987     0.09500
C31         C  0.88209730  0.88347358  0.06695403    -0.54000
C32         C  0.85900933  0.86152250  0.08876198     0.10100
H33         H  0.88153828  0.96215780  0.11699911     0.14600
H34         H  0.84599531  0.84938313  0.14897023     0.00300
H35         H  0.96024522  0.88116519  0.11770618     0.14900
H36         H  0.88162530  0.88272249  0.03644962     0.14700
C37         C  0.08947313  0.90921012  0.90890853     0.86500
C38         C  0.06673587  0.88340184  0.88247804    -0.53800
C39         C  0.08854788  0.86143145  0.85941292     0.09400
C40         C  0.13103990  0.86713390  0.86500853     0.20300
C41         C  0.11593421  0.88243056  0.93019903    -0.54500
C42         C  0.13764969  0.86030979  0.90729293     0.09500
C43         C  0.11559978  0.93160111  0.88239482    -0.54000
C44         C  0.13730066  0.90959528  0.85932138     0.10100
H45         H  0.03623900  0.88265675  0.88199147     0.14600
H46         H  0.14875025  0.84927952  0.84642532     0.00300
H47         H  0.11745208  0.88114879  0.96065506     0.14900
H48         H  0.11677357  0.96208329  0.88186941     0.14700
C49         C  0.97110876  0.02985523  0.97133813     0.86500
C50         C  0.99716700  0.05226155  0.99740689    -0.53800
C51         C  0.01963125  0.03070157  0.01989604     0.09400
C52         C  0.01355047  0.98755877  0.01383076     0.20300
C53         C  0.99731123  0.00371279  0.94905924    -0.54500
C54         C  0.01969082  0.98131873  0.97074114     0.09500
C55         C  0.94880619  0.00373094  0.99753933    -0.54000
C56         C  0.97045901  0.98133534  0.01994480     0.10100
H57         H  0.99776915  0.08277359  0.99799213     0.14600
H58         H  0.03152799  0.96955060  0.03182841     0.00300
H59         H  0.99791867  0.00284313  0.91853553     0.14900
H60         H  0.91828498  0.00287170  0.99812420     0.14700
N61         N  0.83151020  0.73016155  0.51712452    -0.27300
N62         N  0.82995307  0.75617146  0.49070127    -0.35200
C63         C  0.86448923  0.76924812  0.48320034     0.01000
C64         C  0.88942752  0.75004421  0.50529979     0.07000
C65         C  0.86790439  0.72490586  0.52613566    -0.06100
H66         H  0.87083323  0.79122538  0.46309497     0.07700
H67         H  0.87786650  0.70518037  0.54692481     0.08900
Cu68       Cu  0.78180592  0.77934424  0.47135036     0.44200
Cu69       Cu  0.78263876  0.70828707  0.54200843     0.42000
Cu70       Cu  0.70785785  0.77883720  0.53796726     0.43900
N71         N  0.75525163  0.82702510  0.48745212    -0.34700
N72         N  0.72795778  0.82803161  0.51266337    -0.29000
C73         C  0.72090649  0.86429784  0.52101839    -0.05100
C74         C  0.74614171  0.88642633  0.50097934     0.07200
C75         C  0.76737796  0.86191510  0.48008407     0.00900
H76         H  0.70034003  0.87374771  0.54132968     0.08600
H77         H  0.79053829  0.86874518  0.46146709     0.07700
N78         N  0.70059579  0.72466674  0.55990452    -0.36200
N79         N  0.72767579  0.69914651  0.56168492    -0.28300
C80         C  0.71350043  0.66739910  0.57689725    -0.03600
C81         C  0.67584658  0.67320258  0.58494474     0.05000
C82         C  0.66860365  0.70970734  0.57378929     0.03100
H83         H  0.72928261  0.64181316  0.58128700     0.08200
H84         H  0.64196038  0.72422378  0.57536167     0.07100
N85         N  0.51658030  0.73012381  0.83200138    -0.27300
N86         N  0.49028767  0.75626196  0.83045959    -0.35200
C87         C  0.48281598  0.76931990  0.86501363     0.01000
C88         C  0.50479624  0.74996930  0.88994540     0.07000
C89         C  0.52553195  0.72476793  0.86839976    -0.06100
H90         H  0.46282499  0.79139606  0.87137217     0.07700
H91         H  0.54622878  0.70494351  0.87834904     0.08900
Cu92       Cu  0.47112450  0.77960123  0.78231633     0.44200
Cu93       Cu  0.54142125  0.70823934  0.78311103     0.42000
Cu94       Cu  0.53771855  0.77890139  0.70835027     0.43900
N95         N  0.48730145  0.82721666  0.75569540    -0.34700
N96         N  0.51249685  0.82815400  0.72838446    -0.29000
C97         C  0.52086562  0.86440043  0.72125068    -0.05100
C98         C  0.50085074  0.88658721  0.74645229     0.07200
C99         C  0.47995778  0.86213276  0.76775374     0.00900
H100        H  0.54115928  0.87379944  0.70064081     0.08600
H101        H  0.46134346  0.86902122  0.79089952     0.07700
N102        N  0.55951143  0.72467977  0.70110411    -0.36200
N103        N  0.56115270  0.69911879  0.72815941    -0.28300
C104        C  0.57629708  0.66734466  0.71397341    -0.03600
C105        C  0.58444808  0.67317766  0.67634202     0.05000
C106        C  0.57342671  0.70972449  0.66912170     0.03100
H107        H  0.58058301  0.64172701  0.72973556     0.08200
H108        H  0.57511013  0.72427422  0.64249904     0.07100
N109        N  0.48254705  0.83059171  0.27806989    -0.27300
N110        N  0.50675851  0.82969384  0.24987715    -0.35200
C111        C  0.51210996  0.86429181  0.23604062     0.01000
C112        C  0.49101429  0.88883695  0.25694896     0.07000
C113        C  0.47296275  0.86685126  0.28396362    -0.06100
H114        H  0.53021196  0.87096665  0.21241672     0.07700
H115        H  0.45374820  0.87642302  0.30549861     0.08900
Cu116      Cu  0.52563892  0.78212557  0.22528607     0.44200
Cu117      Cu  0.46185316  0.78028141  0.30183425     0.42000
Cu118      Cu  0.46096144  0.70755973  0.22836998     0.43900
N119        N  0.50586833  0.75791060  0.17796244    -0.34700
N120        N  0.48124201  0.73020447  0.17772325    -0.29000
C121        C  0.47114079  0.72396251  0.14174668    -0.05100
C122        C  0.48937725  0.75025274  0.11917937     0.07200
C123        C  0.51104225  0.77117040  0.14309619     0.00900
H124        H  0.45147890  0.70266559  0.13277505     0.08600
H125        H  0.52941934  0.79432940  0.13580594     0.07700
N126        N  0.44633611  0.69760151  0.28480422    -0.36200
N127        N  0.44652986  0.72367591  0.31145036    -0.28300
C128        C  0.43546909  0.70770549  0.34415799    -0.03600
C129        C  0.42830978  0.66989626  0.33789913     0.05000
C130        C  0.43522963  0.66462480  0.29995596     0.03100
H131        H  0.43239032  0.72259861  0.37050378     0.08200
H132        H  0.43193149  0.63877265  0.28437879     0.07100
N133        N  0.83039831  0.48547354  0.27917403    -0.27300
N134        N  0.82948857  0.51071034  0.25196885    -0.35200
C135        C  0.86416141  0.51662431  0.23837588     0.01000
C136        C  0.88866951  0.49474536  0.25837225     0.07000
C137        C  0.86664036  0.47571035  0.28461767    -0.06100
H138        H  0.87091759  0.53563794  0.21555405     0.07700
H139        H  0.87617340  0.45572580  0.30534332     0.08900
Cu140      Cu  0.78195873  0.53058406  0.22802568     0.44200
Cu141      Cu  0.78057669  0.46334904  0.30261529     0.42000
Cu142      Cu  0.70685388  0.46602822  0.23120133     0.43900
N143        N  0.75556003  0.51315853  0.18084157    -0.34700
N144        N  0.72784433  0.48851564  0.18075098    -0.29000
C145        C  0.72077427  0.47906893  0.14474162    -0.05100
C146        C  0.74644217  0.49778299  0.12186796     0.07200
C147        C  0.76792046  0.51905822  0.14569880     0.00900
H148        H  0.69973698  0.45904931  0.13597837     0.08600
H149        H  0.79130258  0.53708062  0.13822748     0.07700
N150        N  0.69803354  0.44736020  0.28659287    -0.36200
N151        N  0.72466291  0.44607153  0.31254352    -0.28300
C152        C  0.70955196  0.43263583  0.34476935    -0.03600
C153        C  0.67172117  0.42538364  0.33891381     0.05000
C154        C  0.66548105  0.43495110  0.30174468     0.03100
H155        H  0.72494594  0.42847637  0.37063289     0.08200
H156        H  0.63919745  0.43288269  0.28675601     0.07100
O157        O  0.55275725  0.72406269  0.00867395    -0.73000
O158        O  0.43879649  0.72584282  0.00041253    -0.74000
O159        O  0.50100307  0.72209466  0.94932825    -0.62600
O160        O  0.49055023  0.72206828  0.05974354    -0.71000
O161        O  0.49227458  0.78445730  0.06139912    -0.70500
O162        O  0.50124887  0.78450764  0.94750988    -0.61800
O163        O  0.44134593  0.78820754  0.99953736    -0.74300
O164        O  0.55211741  0.78647594  0.00941298    -0.73100
Cu165      Cu  0.49571352  0.72130672  0.00451963     1.04600
Cu166      Cu  0.49675051  0.78814458  0.00446068     1.04300
C167        C  0.57009301  0.75566654  0.01018176     0.93200
C168        C  0.42243740  0.75796148  0.99893495     0.92400
C169        C  0.50268013  0.75255077  0.93085359     0.84500
C170        C  0.49017689  0.75258588  0.07817837     0.90800
O171        O  0.71860671  0.49749689  0.06219979    -0.73000
O172        O  0.71985359  0.50403035  0.95121787    -0.74000
O173        O  0.72224060  0.44379046  0.00419422    -0.62600
O174        O  0.72142816  0.55764614  0.00902488    -0.71000
O175        O  0.78386322  0.55667417  0.01022705    -0.70500
O176        O  0.78466676  0.44581189  0.00381273    -0.61800
O177        O  0.78230350  0.50372020  0.95006336    -0.74300
O178        O  0.78100240  0.49886453  0.06411004    -0.73100
Cu179      Cu  0.71831504  0.50070027  0.00666539     1.04600
Cu180      Cu  0.78518360  0.50124799  0.00709702     1.04300
C181        C  0.74899169  0.49758322  0.08081185     0.93200
C182        C  0.75060991  0.50478628  0.93301261     0.92400
C183        C  0.75423563  0.42719565  0.00315551     0.84500
C184        C  0.75312226  0.57479357  0.01015657     0.90800
N185        N  0.67025924  0.77584252  0.01930443    -0.27300
N186        N  0.67013860  0.74748366  0.99537373    -0.35200
C187        C  0.63497318  0.73517740  0.99003533     0.01000
C188        C  0.61121872  0.75726070  0.01090680     0.07000
C189        C  0.63424022  0.78330095  0.02881580    -0.06100
H190        H  0.62737861  0.71174210  0.97218767     0.07700
H191        H  0.62551186  0.80522809  0.04792215     0.08900
Cu192      Cu  0.71690831  0.72099016  0.97663214     0.44200
Cu193      Cu  0.72113250  0.79828442  0.03971681     0.42000
Cu194      Cu  0.79431728  0.72567380  0.03857585     0.43900
N195        N  0.74438055  0.67444189  0.99414020    -0.34700
N196        N  0.77282326  0.67489989  0.01784731    -0.29000
C197        C  0.78070519  0.63909902  0.02741735    -0.05100
C198        C  0.75487000  0.61580361  0.00973995     0.07200
C199        C  0.73242428  0.63914076  0.98894260     0.00900
H200        H  0.80255816  0.63075177  0.04669490     0.08600
H201        H  0.70875729  0.63122060  0.97161841     0.07700
N202        N  0.80395661  0.78168695  0.05436926    -0.36200
N203        N  0.77762863  0.80806480  0.05491220    -0.28300
C204        C  0.79332190  0.84063637  0.06648215    -0.03600
C205        C  0.83122403  0.83458609  0.07319231     0.05000
C206        C  0.83685002  0.79687772  0.06549162     0.03100
H207        H  0.77818270  0.86677736  0.07013895     0.08200
H208        H  0.86289046  0.78148864  0.06823019     0.07100
N209        N  0.73116248  0.51711676  0.83338390    -0.27300
N210        N  0.75843834  0.49196584  0.83267936    -0.35200
C211        C  0.77019973  0.48477387  0.86769425     0.01000
C212        C  0.74879768  0.50575287  0.89199980     0.07000
C213        C  0.72382400  0.52564352  0.86959681    -0.06100
H214        H  0.79304983  0.46598618  0.87476862     0.07700
H215        H  0.70300039  0.54573993  0.87885742     0.08900
Cu216      Cu  0.78492607  0.47479365  0.78521559     0.44200
Cu217      Cu  0.71052736  0.54130967  0.78382915     0.42000
Cu218      Cu  0.78338979  0.54133751  0.71080710     0.43900
N219        N  0.83230528  0.49194396  0.75857557    -0.34700
N220        N  0.83296084  0.51711105  0.73131011    -0.29000
C221        C  0.86915437  0.52565250  0.72391273    -0.05100
C222        C  0.89159286  0.50575017  0.74884256     0.07200
C223        C  0.86733417  0.48475251  0.77027415     0.00900
H224        H  0.87837290  0.54577922  0.70310433     0.08600
H225        H  0.87444751  0.46597735  0.79312044     0.07700
N226        N  0.72827044  0.56041375  0.70228866    -0.36200
N227        N  0.70189117  0.56040176  0.72871113    -0.28300
C228        C  0.66964128  0.57360515  0.71386246    -0.03600
C229        C  0.67595759  0.58219199  0.67642780     0.05000
C230        C  0.71337896  0.57362352  0.67006076     0.03100
H231        H  0.64345984  0.57652237  0.72911817     0.08200
H232        H  0.72859837  0.57655593  0.64385751     0.07100
N233        N  0.27739659  0.83062609  0.48279618    -0.27300
N234        N  0.24922624  0.82972653  0.50703266    -0.35200
C235        C  0.23536391  0.86431721  0.51236391     0.01000
C236        C  0.25623206  0.88886606  0.49123254     0.07000
C237        C  0.28325016  0.86688471  0.47317774    -0.06100
H238        H  0.21176081  0.87098909  0.53049900     0.07700
H239        H  0.30477410  0.87646155  0.45395504     0.08900
Cu240      Cu  0.22472834  0.78214946  0.52601156     0.44200
Cu241      Cu  0.30121202  0.78030428  0.46215828     0.42000
Cu242      Cu  0.22778340  0.70760250  0.46127908     0.43900
N243        N  0.17740244  0.75799568  0.50618574    -0.34700
N244        N  0.17714972  0.73030602  0.48153737    -0.29000
C245        C  0.14117372  0.72409827  0.47142446    -0.05100
C246        C  0.11862316  0.75039341  0.48967715     0.07200
C247        C  0.14254932  0.77127938  0.51136191     0.00900
H248        H  0.13218959  0.70281063  0.45175966     0.08600
H249        H  0.13527275  0.79442012  0.52976656     0.07700
N250        N  0.28422834  0.69759785  0.44672039    -0.36200
N251        N  0.31086938  0.72367331  0.44691177    -0.28300
C252        C  0.34358594  0.70768842  0.43590389    -0.03600
C253        C  0.33734299  0.66986536  0.42878648     0.05000
C254        C  0.29939297  0.66460600  0.43566875     0.06700
H255        H  0.36992766  0.72258163  0.43282498     0.08200
H256        H  0.28381971  0.63875310  0.43237387     0.07100
O257        O  0.05920133  0.72219834  0.49091502    -0.73000
O258        O  0.94880622  0.72218759  0.50144304    -0.74000
O259        O  0.99985166  0.72595280  0.43918918    -0.62600
O260        O  0.00816745  0.72417109  0.55316249    -0.71000
O261        O  0.00890394  0.78658446  0.55252421    -0.70500
O262        O  0.99894517  0.78831668  0.44173434    -0.61800
O263        O  0.94697059  0.78460001  0.50170186    -0.74300
O264        O  0.06084196  0.78458778  0.49262392    -0.73100
Cu265      Cu  0.00398738  0.72141799  0.49611395     1.04600
Cu266      Cu  0.00391017  0.78825524  0.49714991     1.04300
C267        C  0.07762610  0.75272031  0.49051556     0.93200
C268        C  0.93032741  0.75263820  0.50314869     0.92400
C269        C  0.99835794  0.75806891  0.42282384     0.84500
C270        C  0.00967554  0.75577397  0.57050128     0.90800
O271        O  0.00334330  0.44588313  0.78477835    -0.73000
O272        O  0.00975441  0.55673613  0.78398782    -0.74000
O273        O  0.94962078  0.50377869  0.78236677    -0.62600
O274        O  0.06362404  0.49894066  0.78119134    -0.71000
O275        O  0.06178331  0.49758143  0.71878345    -0.70500
O276        O  0.95081344  0.50410127  0.71990747    -0.61800
O277        O  0.00860833  0.55773005  0.72154324    -0.74300
O278        O  0.00378008  0.44386237  0.72234379    -0.73100
Cu279      Cu  0.00662717  0.50131552  0.78530338     1.04600
Cu280      Cu  0.00625606  0.50077850  0.71842400     1.04300
C281        C  0.00270304  0.42726746  0.75434269     0.93200
C282        C  0.00971347  0.57486602  0.75324924     0.92400
C283        C  0.93259424  0.50483799  0.75065906     0.84500
C284        C  0.08035677  0.49767096  0.74919562     0.90800
N285        N  0.01885019  0.77590400  0.67068304    -0.27300
N286        N  0.99483123  0.74762194  0.67056000    -0.35200
C287        C  0.98945206  0.73534400  0.63538566     0.01000
C288        C  0.01039463  0.75736455  0.61163253     0.07000
C289        C  0.02838261  0.78334240  0.63466102    -0.06100
H290        H  0.97154122  0.71196124  0.62778511     0.07700
H291        H  0.04756155  0.80520331  0.62593750     0.08900
Cu292      Cu  0.97606742  0.72112738  0.71733210     0.44200
Cu293      Cu  0.03937122  0.79826153  0.72154882     0.42000
Cu294      Cu  0.03816606  0.72565600  0.79468086     0.43900
N295        N  0.99365584  0.67452664  0.74467983    -0.34700
N296        N  0.01740495  0.67493822  0.77309063    -0.29000
C297        C  0.02700670  0.63912857  0.78088402    -0.05100
C298        C  0.00930911  0.61587452  0.75502673     0.07200
C299        C  0.98846264  0.63924441  0.73265762     0.00900
H300        H  0.04631265  0.63074751  0.80270130     0.08600
H301        H  0.97109742  0.63135921  0.70900775     0.07700
N302        N  0.05406798  0.78162917  0.80435749    -0.36200
N303        N  0.05464205  0.80800873  0.77802984    -0.28300
C304        C  0.06626801  0.84056079  0.79372014    -0.03600
C305        C  0.07298415  0.83449621  0.83162257     0.05000
C306        C  0.06522525  0.79679961  0.83725273     0.03100
H307        H  0.06994191  0.86669901  0.77858346     0.08200
H308        H  0.06793511  0.78140707  0.86330034     0.07100
N309        N  0.27871861  0.48574220  0.83071401    -0.27300
N310        N  0.25147324  0.51093455  0.82983683    -0.35200
C311        C  0.23786959  0.51677411  0.86452353     0.01000
C312        C  0.25789388  0.49488813  0.88900533     0.07000
C313        C  0.28416969  0.47593280  0.86694605    -0.06100
H314        H  0.21501094  0.53573782  0.87130753     0.07700
H315        H  0.30492102  0.45596136  0.87645230     0.08900
Cu316      Cu  0.22748261  0.53080351  0.78231929     0.44200
Cu317      Cu  0.30219930  0.46368554  0.78087138     0.42000
Cu318      Cu  0.23074356  0.46613505  0.70724011     0.43900
N319        N  0.18034834  0.51331208  0.75587383    -0.34700
N320        N  0.18029962  0.48863512  0.72818318    -0.29000
C321        C  0.14431169  0.47915924  0.72108019    -0.05100
C322        C  0.12140470  0.49789154  0.74669898     0.07200
C323        C  0.14519211  0.51920827  0.76818474     0.00900
H324        H  0.13558579  0.45910992  0.70005271     0.08600
H325        H  0.13768237  0.53725554  0.79153592     0.07700
N326        N  0.28611295  0.44748363  0.69838307    -0.36200
N327        N  0.31210619  0.44630882  0.72497445    -0.28300
C328        C  0.34432209  0.43288330  0.70983899    -0.03600
C329        C  0.33840482  0.42550773  0.67203478     0.05000
C330        C  0.30121649  0.43499864  0.66583579     0.03100
H331        H  0.37021803  0.42880669  0.72519910     0.08200
H332        H  0.28618596  0.43283978  0.63958234     0.07100
N333        N  0.83267231  0.27608907  0.48449809    -0.27300
N334        N  0.83283181  0.24773928  0.50844530    -0.35200
C335        C  0.86800625  0.23541043  0.51369913     0.01000
C336        C  0.89171696  0.25746472  0.49274340     0.07000
C337        C  0.86866733  0.28351687  0.47488756    -0.06100
H338        H  0.87563535  0.21197245  0.53153278     0.07700
H339        H  0.87735704  0.30542624  0.45573939     0.08900
Cu340      Cu  0.78609041  0.22122066  0.52723560     0.44200
Cu341      Cu  0.78180249  0.29853458  0.46411867     0.42000
Cu342      Cu  0.70887432  0.22579971  0.46492998     0.43900
N343        N  0.75879959  0.17463521  0.50953466    -0.34700
N344        N  0.73045483  0.17507348  0.48570715    -0.29000
C345        C  0.72266722  0.13927289  0.47608479    -0.05100
C346        C  0.74845528  0.11599238  0.49385524     0.07200
C347        C  0.77078453  0.13934030  0.51476146     0.00900
H348        H  0.70088616  0.13091213  0.45673345     0.08600
H349        H  0.79436973  0.13143035  0.53220437     0.07700
N350        N  0.69909473  0.28180262  0.44917579    -0.36200
N351        N  0.72534799  0.30824899  0.44879681    -0.28300
C352        C  0.70961104  0.34081668  0.43726969    -0.03600
C353        C  0.67175529  0.33468828  0.43040024     0.05000
C354        C  0.66620248  0.29694108  0.43796965     0.03100
H355        H  0.72469247  0.36700716  0.43374471     0.08200
H356        H  0.64020885  0.28149632  0.43510387     0.07100
O357        O  0.72214014  0.99919625  0.43942269    -0.73000
O358        O  0.72081415  0.00383714  0.55345971    -0.74000
O359        O  0.71939693  0.05691377  0.49338501    -0.62600
O360        O  0.71834466  0.94605650  0.49962416    -0.71000
O361        O  0.78076705  0.94389704  0.49925783    -0.70500
O362        O  0.78183255  0.05777528  0.49460896    -0.61800
O363        O  0.78326613  0.00402384  0.55233089    -0.74300
O364        O  0.78453368  0.99770080  0.44134759    -0.73100
Cu365      Cu  0.71795131  0.00149210  0.49643036     1.04600
Cu366      Cu  0.78481934  0.00080690  0.49688266     1.04300
C367        C  0.75415218  0.99786105  0.42273023     0.93200
C368        C  0.75250252  0.00477805  0.57052337     0.92400
C369        C  0.75016552  0.07497942  0.49347145     0.84500
C370        C  0.74873702  0.92737206  0.50026063     0.90800
O371        O  0.49913953  0.94411418  0.78095809    -0.73000
O372        O  0.49433621  0.05795113  0.78184203    -0.74000
O373        O  0.44115092  0.99781384  0.78473038    -0.62600
O374        O  0.55212144  0.00431589  0.78324259    -0.71000
O375        O  0.55314735  0.00403713  0.72078088    -0.70500
O376        O  0.43913310  0.99920208  0.72232981    -0.61800
O377        O  0.49300518  0.05701320  0.71940012    -0.74300
O378        O  0.49940705  0.94615631  0.71852193    -0.73100
Cu379      Cu  0.49668630  0.00101035  0.78491134     1.04600
Cu380      Cu  0.49612433  0.00158932  0.71803365     1.04300
C381        C  0.50011353  0.92753261  0.74895493     0.93200
C382        C  0.49314572  0.07511362  0.75015320     0.92400
C383        C  0.42248949  0.99788316  0.75437158     0.84500
C384        C  0.57025905  0.00506445  0.75244285     0.90800
N385        N  0.66990315  0.01712238  0.77179312    -0.27300
N386        N  0.67052445  0.99189137  0.74458891    -0.35200
C387        C  0.63548834  0.98480955  0.73283908     0.01000
C388        C  0.61126483  0.00595368  0.75417337     0.07000
C389        C  0.63373035  0.02581866  0.77909563    -0.06100
H390        H  0.62834366  0.96596278  0.71006365     0.07700
H391        H  0.62454308  0.04598586  0.79987880     0.08900
Cu392      Cu  0.71792433  0.97442173  0.71817047     0.44200
Cu393      Cu  0.71948031  0.04118105  0.79245555     0.42000
Cu394      Cu  0.79252021  0.04080739  0.71976753     0.43900
N395        N  0.74458504  0.99160902  0.67080111    -0.34700
N396        N  0.77190401  0.01671180  0.67018795    -0.29000
C397        C  0.77928537  0.02534520  0.63401097    -0.05100
C398        C  0.75429739  0.00557866  0.61153350     0.07200
C399        C  0.73284362  0.98455239  0.63575379     0.00900
H400        H  0.80013404  0.04544828  0.62483060     0.08600
H401        H  0.70995587  0.96584974  0.62860292     0.07700
N402        N  0.80107067  0.05996949  0.77484715    -0.36200
N403        N  0.77460221  0.06013256  0.80117544    -0.28300
C404        C  0.78941754  0.07339875  0.83341206    -0.03600
C405        C  0.82688798  0.08182728  0.82714469     0.05000
C406        C  0.83330690  0.07311498  0.78976028     0.03100
H407        H  0.77411308  0.07646907  0.85955093     0.08200
H408        H  0.85954058  0.07593150  0.77457634     0.07100
N409        N  0.48532796  0.17520258  0.73049394    -0.27300
N410        N  0.50913320  0.17476561  0.75885837    -0.35200
C411        C  0.51440738  0.13946340  0.77079353     0.01000
C412        C  0.49354950  0.11611881  0.74841615     0.07000
C413        C  0.47576283  0.13940156  0.72264631    -0.06100
H414        H  0.53181399  0.13154916  0.79440358     0.07700
H415        H  0.45641173  0.13104524  0.70086104     0.08900
Cu416      Cu  0.52666349  0.22132324  0.78631241     0.44200
Cu417      Cu  0.46444073  0.22590163  0.70901825     0.42000
Cu418      Cu  0.46341184  0.29849891  0.78212045     0.43900
N419        N  0.50789166  0.24778775  0.83310319    -0.34700
N420        N  0.48388854  0.27608766  0.83297801    -0.29000
C421        C  0.47433718  0.28351456  0.86899424    -0.05100
C422        C  0.49229575  0.25751541  0.89202597     0.07200
C423        C  0.51324631  0.23549080  0.86827941     0.00900
H424        H  0.45516813  0.30539199  0.87771293     0.08600
H425        H  0.53114850  0.21210143  0.87588584     0.07700
N426        N  0.44812060  0.30827056  0.72565467    -0.36200
N427        N  0.44859461  0.28187354  0.69934936    -0.28300
C428        C  0.43742833  0.29704343  0.66645837    -0.03600
C429        C  0.42977840  0.33476041  0.67206417     0.05000
C430        C  0.43656188  0.34084273  0.70994898     0.03100
H431        H  0.43465080  0.28163814  0.64042585     0.08200
H432        H  0.43297359  0.36700397  0.72506448     0.07100
O433        O  0.22314701  0.49838190  0.94677030    -0.73000
O434        O  0.22311226  0.50888903  0.06087857    -0.74000
O435        O  0.22039506  0.55869690  0.99763283    -0.62600
O436        O  0.21933744  0.44860524  0.00985979    -0.71000
O437        O  0.28172235  0.44622000  0.00906207    -0.70500
O438        O  0.28280565  0.56029168  0.99813464    -0.61800
O439        O  0.28551380  0.50930461  0.05889388    -0.74300
O440        O  0.28553805  0.49713528  0.94855421    -0.73100
Cu441      Cu  0.21928585  0.50368070  0.00381894     1.04600
Cu442      Cu  0.28613230  0.50322429  0.00368421     1.04300
C443        C  0.25514601  0.49627692  0.93004646     0.93200
C444        C  0.25505905  0.51047712  0.07752748     0.92400
C445        C  0.25090416  0.57706202  0.99603507     0.84500
C446        C  0.24959583  0.42980849  0.01095143     0.90800
N447        N  0.32283866  0.77992771  0.98866578    -0.27300
N448        N  0.32211579  0.75215927  0.01324366    -0.35200
C449        C  0.35701567  0.73949124  0.01941883     0.01000
C450        C  0.38139485  0.76079280  0.99842255     0.07000
C451        C  0.35907191  0.78674705  0.97959092    -0.06100
H452        H  0.36395469  0.71599386  0.03744505     0.07700
H453        H  0.36835180  0.80775792  0.95972103     0.08900
Cu454      Cu  0.27458149  0.72572275  0.02999144     0.44200
Cu455      Cu  0.27282173  0.80085266  0.96546387     0.42000
Cu456      Cu  0.20362170  0.72491943  0.95958379     0.43900
N457        N  0.25299143  0.67743043  0.00920557    -0.34700
N458        N  0.22705049  0.67576303  0.98281072    -0.29000
C459        C  0.22263328  0.63935561  0.97318072    -0.05100
C460        C  0.24828852  0.61801261  0.99353431     0.07200
C461        C  0.26685844  0.64309211  0.01602584     0.00900
H462        H  0.20284879  0.62921748  0.95258560     0.08600
H463        H  0.28867959  0.63692423  0.03625112     0.07700
N464        N  0.19287060  0.78063934  0.94245706    -0.36200
N465        N  0.21785669  0.80814478  0.94518542    -0.28300
C466        C  0.20205455  0.84040674  0.93305050    -0.03600
C467        C  0.16554676  0.83299333  0.92196166     0.05000
C468        C  0.16067509  0.79484354  0.92824740     0.03100
H469        H  0.21609198  0.86732152  0.93237095     0.08200
H470        H  0.13543903  0.77871428  0.92325297     0.07100
O471        O  0.94820954  0.49710157  0.28601745    -0.73000
O472        O  0.05851361  0.50944458  0.28595694    -0.74000
O473        O  0.99769458  0.56035383  0.28331187    -0.62600
O474        O  0.00879114  0.44627536  0.28213423    -0.71000
O475        O  0.00957127  0.44870480  0.21974378    -0.70500
O476        O  0.99715772  0.55879173  0.22089386    -0.61800
O477        O  0.06046622  0.50908053  0.22354465    -0.74300
O478        O  0.94640852  0.49837375  0.22361869    -0.73100
Cu479      Cu  0.00332429  0.50327947  0.28659416     1.04600
Cu480      Cu  0.00343176  0.50377854  0.21973967     1.04300
C481        C  0.92969995  0.49621731  0.25562441     0.93200
C482        C  0.07712474  0.51066520  0.25548812     0.92400
C483        C  0.99556439  0.57714302  0.25141656     0.84500
C484        C  0.01070502  0.42988569  0.24999151     0.90800
N485        N  0.98815333  0.78001348  0.32319089    -0.27300
N486        N  0.01276346  0.75227416  0.32249709    -0.35200
C487        C  0.01891406  0.73961836  0.35741066     0.01000
C488        C  0.99786603  0.76089235  0.38177122     0.07000
C489        C  0.97903111  0.78682236  0.35942056    -0.06100
H490        H  0.03696344  0.71614468  0.36437297     0.07700
H491        H  0.95913135  0.80781368  0.36867941     0.08900
Cu492      Cu  0.02959095  0.72582855  0.27498326     0.44200
Cu493      Cu  0.96498396  0.80093100  0.27314101     0.42000
Cu494      Cu  0.95916498  0.72499503  0.20400634     0.43900
N495        N  0.00876007  0.67752043  0.25345245    -0.34700
N496        N  0.98235520  0.67584663  0.22752098    -0.29000
C497        C  0.97269915  0.63943992  0.22314618    -0.05100
C498        C  0.99304540  0.61810100  0.24881501     0.07200
C499        C  0.01556301  0.64318738  0.26734917     0.00900
H500        H  0.95210348  0.62929585  0.20336561     0.08600
H501        H  0.03580554  0.63702427  0.28915751     0.07700
N502        N  0.94202569  0.78070717  0.19317455    -0.36200
N503        N  0.94472825  0.80822313  0.21815421    -0.28300
C504        C  0.93258727  0.84047511  0.20233170    -0.03600
C505        C  0.92151743  0.83304772  0.16581424     0.05000
C506        C  0.92782834  0.79489563  0.16095929     0.03100
H507        H  0.93189298  0.86739482  0.21636094     0.08200
H508        H  0.92285822  0.77875655  0.13572390     0.07100
N509        N  0.27764965  0.52004963  0.17714566    -0.27300
N510        N  0.24981425  0.49552980  0.17772461    -0.35200
C511        C  0.23661164  0.49008216  0.14292191     0.01000
C512        C  0.25756376  0.51148615  0.11862219     0.07000
C513        C  0.28395174  0.52976493  0.14095902    -0.06100
H514        H  0.21331217  0.47181902  0.13594657     0.07700
H515        H  0.30525103  0.54933313  0.13168374     0.08900
Cu516      Cu  0.22469708  0.47659816  0.22517244     0.44200
Cu517      Cu  0.30024918  0.54140345  0.22758609     0.42000
Cu518      Cu  0.22716648  0.54156967  0.30061820     0.43900
N519        N  0.17728456  0.49566863  0.25024257    -0.34700
N520        N  0.17672691  0.52023608  0.27804019    -0.29000
C521        C  0.14055543  0.52999422  0.28432961    -0.05100
C522        C  0.11820904  0.51169509  0.25796586     0.07200
C523        C  0.14248356  0.49023382  0.23704697     0.00900
H524        H  0.13129733  0.54959357  0.30561087     0.08600
H525        H  0.13548939  0.47192399  0.21378639     0.07700
N526        N  0.28318212  0.55876477  0.30999463    -0.36200
N527        N  0.30961800  0.55869210  0.28359405    -0.28300
C528        C  0.34213427  0.57102564  0.29879379    -0.03600
C529        C  0.33604119  0.57916585  0.33645334     0.05000
C530        C  0.29835627  0.57115164  0.34250370     0.03100
H531        H  0.36832321  0.57387550  0.28357323     0.08200
H532        H  0.28310165  0.57411330  0.36866352     0.07100
O533        O  0.50387875  0.28853334  0.06189931    -0.73000
O534        O  0.49386160  0.28675595  0.95111264    -0.74000
O535        O  0.44193927  0.28496581  0.01104202    -0.62600
O536        O  0.55581292  0.28461512  0.00190001    -0.71000
O537        O  0.55382216  0.22220788  0.00219354    -0.70500
O538        O  0.44344463  0.22257355  0.01279924    -0.61800
O539        O  0.49444005  0.22434027  0.95051636    -0.74300
O540        O  0.50283278  0.22617236  0.06447461    -0.73100
Cu541      Cu  0.49888453  0.28845201  0.00648267     1.04600
Cu542      Cu  0.49864521  0.22161552  0.00756205     1.04300
C543        C  0.50441350  0.25828869  0.08082346     0.93200
C544        C  0.49301075  0.25593830  0.93315701     0.92400
C545        C  0.42508804  0.25313997  0.01319154     0.84500
C546        C  0.57237525  0.25260720  0.00045388     0.90800
N547        N  0.77485077  0.32782475  0.99070070    -0.27300
N548        N  0.74751431  0.32685082  0.01586351    -0.35200
C549        C  0.73542700  0.36175548  0.02322439     0.01000
C550        C  0.75674137  0.38624424  0.00238151     0.07000
C551        C  0.78197568  0.36408326  0.98237369    -0.06100
H552        H  0.71225661  0.36861465  0.04182222     0.07700
H553        H  0.80260448  0.37351014  0.96211384     0.08900
Cu554      Cu  0.72094948  0.27918002  0.03195736     0.44200
Cu555      Cu  0.79490236  0.27858243  0.96547124     0.42000
Cu556      Cu  0.71999582  0.20807882  0.96138400     0.43900
N557        N  0.67277215  0.25599616  0.01273537    -0.34700
N558        N  0.67115180  0.22997147  0.98633617    -0.29000
C559        C  0.63473299  0.22473741  0.97740485    -0.05100
C560        C  0.61326761  0.24990912  0.99826589     0.07200
C561        C  0.63826147  0.26910535  0.02029529     0.00900
H562        H  0.62471677  0.20502022  0.95664002     0.08600
H563        H  0.63197486  0.29111593  0.04037996     0.07700
N564        N  0.77499061  0.19889842  0.94177472    -0.36200
N565        N  0.80209711  0.22438355  0.94360513    -0.28300
C566        C  0.83409946  0.20938805  0.92978548    -0.03600
C567        C  0.82684259  0.17289885  0.91861280     0.05000
C568        C  0.78916396  0.16713898  0.92658032     0.03100
H569        H  0.86075636  0.22387748  0.92825247     0.08200
H570        H  0.77336393  0.14157677  0.92214837     0.07100
O571        O  0.44449521  0.00940880  0.21811610    -0.73000
O572        O  0.55481039  0.99710875  0.21800989    -0.74000
O573        O  0.49425962  0.94628073  0.22186539    -0.62600
O574        O  0.50529030  0.06032603  0.22076844    -0.71000
O575        O  0.50584476  0.05873565  0.28318659    -0.70500
O576        O  0.49350710  0.94862945  0.28426025    -0.61800
O577        O  0.55664922  0.99833305  0.28040688    -0.74300
O578        O  0.44254355  0.00898253  0.28052609    -0.73100
Cu579      Cu  0.49969119  0.00326955  0.21745617     1.04600
Cu580      Cu  0.49960610  0.00370977  0.28431030     1.04300
C581        C  0.42587872  0.01058917  0.24858351     0.93200
C582        C  0.57334143  0.99619948  0.24838934     0.92400
C583        C  0.49236888  0.92985239  0.25398898     0.84500
C584        C  0.50742309  0.07709979  0.25266572     0.90800
N585        N  0.67260490  0.98541172  0.22466901    -0.27300
N586        N  0.67356526  0.01074693  0.25177654    -0.35200
C587        C  0.63892001  0.01668315  0.26544009     0.01000
C588        C  0.61437484  0.99471002  0.24559709     0.07000
C589        C  0.63635669  0.97560102  0.21936467    -0.06100
H590        H  0.63220379  0.03579017  0.28819960     0.07700
H591        H  0.62678516  0.95554772  0.19872849     0.08900
Cu592      Cu  0.72116224  0.03073792  0.27549667     0.44200
Cu593      Cu  0.72238133  0.96325432  0.20113399     0.42000
Cu594      Cu  0.79613224  0.96591929  0.27241462     0.43900
N595        N  0.74759604  0.01334258  0.32268306    -0.34700
N596        N  0.77522499  0.98859488  0.32280608    -0.29000
C597        C  0.78228750  0.97918644  0.35882760    -0.05100
C598        C  0.75670900  0.99804323  0.38167890     0.07200
C599        C  0.73528659  0.01935519  0.35782390     0.00900
H600        H  0.80324597  0.95909082  0.36761463     0.08600
H601        H  0.71196068  0.03746077  0.36527577     0.07700
N602        N  0.80492873  0.94721877  0.21704026    -0.36200
N603        N  0.77828273  0.94595722  0.19110796    -0.28300
C604        C  0.79337627  0.93254559  0.15886375    -0.03600
C605        C  0.83121260  0.92527703  0.16469224     0.05000
C606        C  0.83747215  0.93481039  0.20186514     0.03100
H607        H  0.77796589  0.92841333  0.13300278     0.08200
H608        H  0.86376316  0.93273032  0.21683556     0.07100
N609        N  0.52070940  0.17583460  0.27637637    -0.27300
N610        N  0.49435325  0.17748995  0.25039567    -0.35200
C611        C  0.48750329  0.14313464  0.23659435     0.01000
C612        C  0.50993380  0.11805537  0.25525014     0.07000
C613        C  0.53028646  0.13941994  0.28088419    -0.06100
H614        H  0.46730565  0.13695635  0.21475182     0.07700
H615        H  0.55085001  0.12929124  0.30070982     0.08900
Cu616      Cu  0.47366252  0.22578231  0.22869472     0.44200
Cu617      Cu  0.54393011  0.22502454  0.29973577     0.42000
Cu618      Cu  0.53806110  0.30099954  0.23048536     0.43900
N619        N  0.49028101  0.25234433  0.18117765    -0.34700
N620        N  0.51481847  0.28014114  0.18045385    -0.29000
C621        C  0.52381079  0.28703788  0.14420674    -0.05100
C622        C  0.50496274  0.26110698  0.12187466     0.07200
C623        C  0.48404922  0.23973908  0.14626595     0.00900
H624        H  0.54364242  0.30807720  0.13492148     0.08600
H625        H  0.46604951  0.21622437  0.13932520     0.07700
N626        N  0.55830184  0.30826649  0.28547797    -0.36200
N627        N  0.56101589  0.28076001  0.31047588    -0.28300
C628        C  0.57518264  0.29496909  0.34268897    -0.03600
C629        C  0.58145838  0.33312090  0.33781629     0.05000
C630        C  0.57040711  0.34052947  0.30129038     0.03100
H631        H  0.58015624  0.27884136  0.36793672     0.08200
H632        H  0.57108808  0.36744847  0.28724608     0.07100
O633        O  0.27972282  0.99831567  0.55694321    -0.73000
O634        O  0.27989190  0.00903434  0.44286511    -0.74000
O635        O  0.28255692  0.05875196  0.50618930    -0.62600
O636        O  0.28356060  0.94864783  0.49377680    -0.71000
O637        O  0.22117356  0.94633042  0.49451213    -0.70500
O638        O  0.22014927  0.06038562  0.50560331    -0.61800
O639        O  0.21748781  0.00949260  0.44477739    -0.74300
O640        O  0.21733207  0.99713856  0.55510011    -0.73100
Cu641      Cu  0.28364544  0.00372590  0.49991559     1.04600
Cu642      Cu  0.21679931  0.00332720  0.49997601     1.04300
C643        C  0.24770800  0.99619919  0.57363180     0.93200
C644        C  0.24796583  0.01065936  0.42618160     0.92400
C645        C  0.25205298  0.07713868  0.50775398     0.84500
C646        C  0.25328519  0.92988549  0.49261472     0.90800
N647        N  0.22411559  0.98536397  0.67292373    -0.27300
N648        N  0.25129587  0.01061554  0.67386819    -0.35200
C649        C  0.26489740  0.01657162  0.63920154     0.01000
C650        C  0.24493293  0.99470273  0.61466434     0.07000
C651        C  0.21869689  0.97563085  0.63666828    -0.06100
H652        H  0.28770866  0.03560312  0.63246940     0.07700
H653        H  0.19799877  0.95563627  0.62710982     0.08900
Cu654      Cu  0.27519279  0.03044066  0.72144271     0.44200
Cu655      Cu  0.20069616  0.96317756  0.72272310     0.42000
Cu656      Cu  0.27220674  0.96566454  0.79638506     0.43900
N657        N  0.32241585  0.01313673  0.74785317    -0.34700
N658        N  0.32259031  0.98839583  0.77549029    -0.29000
C659        C  0.35863258  0.97907569  0.78255897    -0.05100
C660        C  0.38144081  0.99798453  0.75697339     0.07200
C661        C  0.35753667  0.01923024  0.73554215     0.00900
H662        H  0.36746594  0.95900159  0.80352359     0.08600
H663        H  0.36494347  0.03734585  0.71220652     0.07700
N664        N  0.21680873  0.94702442  0.80522801    -0.36200
N665        N  0.19082157  0.94584526  0.77862893    -0.28300
C666        C  0.15858353  0.93248241  0.79376512    -0.03600
C667        C  0.16446745  0.92515452  0.83158088     0.05000
C668        C  0.20166798  0.93460182  0.83778654     0.03100
H669        H  0.13269071  0.92842505  0.77839699     0.08200
H670        H  0.21667737  0.93246367  0.86405439     0.07100
O671        O  0.95018223  0.22425661  0.49479858    -0.73000
O672        O  0.06413725  0.22602776  0.50306026    -0.74000
O673        O  0.00190857  0.22213592  0.55413164    -0.62600
O674        O  0.01240490  0.22241546  0.44372127    -0.71000
O675        O  0.01068446  0.28480789  0.44218620    -0.70500
O676        O  0.00162809  0.28454426  0.55608342    -0.61800
O677        O  0.06157669  0.28838986  0.50408430    -0.74300
O678        O  0.95080981  0.28667193  0.49416964    -0.73100
Cu679      Cu  0.00722291  0.22149951  0.49893942     1.04600
Cu680      Cu  0.00617084  0.28833665  0.49913981     1.04300
C681        C  0.93284037  0.25586357  0.49337416     0.93200
C682        C  0.08049174  0.25814169  0.50460701     0.92400
C683        C  0.00017945  0.25254751  0.57266921     0.84500
C684        C  0.01280828  0.25297293  0.42534667     0.90800
N685        N  0.99016646  0.32791677  0.77500704    -0.27300
N686        N  0.01540048  0.32691137  0.74773541    -0.35200
C687        C  0.02279237  0.36180320  0.73562548     0.01000
C688        C  0.00189314  0.38631658  0.75685663     0.07000
C689        C  0.98182081  0.36418344  0.78206531    -0.06100
H690        H  0.04146256  0.36863729  0.71250399     0.07700
H691        H  0.96151878  0.37363536  0.80264245     0.08900
Cu692      Cu  0.03159046  0.27920896  0.72127711     0.44200
Cu693      Cu  0.96490408  0.27870429  0.79510279     0.42000
Cu694      Cu  0.96098949  0.20812814  0.72030665     0.43900
N695        N  0.01240784  0.25599286  0.67309066    -0.34700
N696        N  0.98599438  0.22998581  0.67146763    -0.29000
C697        C  0.97708563  0.22473554  0.63504127    -0.05100
C698        C  0.99797968  0.24987420  0.61356970     0.07200
C699        C  0.02000181  0.26907247  0.63857042     0.00900
H700        H  0.95631251  0.20503039  0.62502281     0.08600
H701        H  0.04009993  0.29106833  0.63228252     0.07700
N702        N  0.94131378  0.19897621  0.77528886    -0.36200
N703        N  0.94306820  0.22449997  0.80236708    -0.28300
C704        C  0.92923972  0.20952073  0.83437767    -0.03600
C705        C  0.91814330  0.17300024  0.82715603     0.05000
C706        C  0.92616702  0.16720624  0.78948872     0.03100
H707        H  0.92766835  0.22403819  0.86102688     0.08200
H708        H  0.92181643  0.14161112  0.77371888     0.07100
N709        N  0.27586993  0.17586764  0.52094884    -0.27300
N710        N  0.24995840  0.17751170  0.49452160    -0.35200
C711        C  0.23611709  0.14316514  0.48770977     0.01000
C712        C  0.25466776  0.11809730  0.51024104     0.07000
C713        C  0.28028907  0.13946237  0.53061084    -0.06100
H714        H  0.21432268  0.13698177  0.46746065     0.07700
H715        H  0.30005531  0.12933890  0.55123679     0.08900
Cu716      Cu  0.22835866  0.22578433  0.47366891     0.44200
Cu717      Cu  0.29927421  0.22506496  0.54414227     0.42000
Cu718      Cu  0.23009323  0.30099428  0.53811260     0.43900
N719        N  0.18082258  0.25228214  0.49033771    -0.34700
N720        N  0.18009396  0.28007128  0.51488765    -0.29000
C721        C  0.14385839  0.28691909  0.52393412    -0.05100
C722        C  0.12153586  0.26096634  0.50511206     0.07200
C723        C  0.14592029  0.23963406  0.48415109     0.00900
H724        H  0.13457635  0.30794472  0.54378420     0.08600
H725        H  0.13898246  0.21611895  0.46614858     0.07700
N726        N  0.28503123  0.30831428  0.55844147    -0.36200
N727        N  0.31002359  0.28081418  0.56122054    -0.28300
C728        C  0.34220005  0.29504198  0.57544896    -0.03600
C729        C  0.33730434  0.33319950  0.58169891     0.05000
C730        C  0.30080565  0.34058944  0.57056250     0.03100
H731        H  0.36743859  0.27892482  0.58048304     0.08200
H732        H  0.28675240  0.36750441  0.57119913     0.07100
N733        N  0.02045328  0.33067145  0.22564482    -0.27300
N734        N  0.99615868  0.32972941  0.25376747    -0.35200
C735        C  0.99085009  0.36429065  0.26771553     0.01000
C736        C  0.01206225  0.38886771  0.24696195     0.07000
C737        C  0.03013365  0.36693344  0.21991419    -0.06100
H738        H  0.97268069  0.37092254  0.29130187     0.07700
H739        H  0.04941135  0.37654312  0.19845291     0.08900
Cu740      Cu  0.97710583  0.28212661  0.27817755     0.44200
Cu741      Cu  0.04112878  0.28039724  0.20172788     0.42000
Cu742      Cu  0.04228995  0.20791836  0.27524160     0.43900
N743        N  0.99711325  0.25816786  0.32555149    -0.34700
N744        N  0.02192705  0.23062335  0.32582660    -0.29000
C745        C  0.03209076  0.22450508  0.36180563    -0.05100
C746        C  0.01369512  0.25070693  0.38434271     0.07200
C747        C  0.99187317  0.27144902  0.36040243     0.00900
H748        H  0.05186532  0.20332025  0.37080505     0.08600
H749        H  0.97331443  0.29446998  0.36767154     0.07700
N750        N  0.05684772  0.19778547  0.21882541    -0.36200
N751        N  0.05652364  0.22378690  0.19210815    -0.28300
C752        C  0.06750332  0.20773508  0.15940928    -0.03600
C753        C  0.07475189  0.16994561  0.16575649     0.05000
C754        C  0.06796905  0.16478174  0.20374137     0.03100
H755        H  0.07046891  0.22255676  0.13300912     0.08200
H756        H  0.07135176  0.13897831  0.21938785     0.07100
N757        N  0.22544027  0.02020336  0.32655332    -0.27300
N758        N  0.25317779  0.99556419  0.32601662    -0.35200
C759        C  0.26636525  0.99012904  0.36082856     0.01000
C760        C  0.24550968  0.01167290  0.38508710     0.07000
C761        C  0.21918842  0.03001565  0.36272017    -0.06100
H762        H  0.28957826  0.97176384  0.36784107     0.07700
H763        H  0.19795469  0.04967090  0.37196183     0.08900
Cu764      Cu  0.27823227  0.97641925  0.27861373     0.44200
Cu765      Cu  0.20284305  0.04154319  0.27610344     0.42000
Cu766      Cu  0.27587148  0.04147154  0.20317525     0.43900
N767        N  0.32569740  0.99553933  0.25366320    -0.34700
N768        N  0.32628778  0.02015209  0.22589950    -0.29000
C769        C  0.36246540  0.02994564  0.21970386    -0.05100
C770        C  0.38478464  0.01162093  0.24608355     0.07200
C771        C  0.36048237  0.99010425  0.26692061     0.00900
H772        H  0.37175005  0.04957320  0.19845790     0.08600
H773        H  0.36744723  0.97175212  0.29015840     0.07700
N774        N  0.21985372  0.05868026  0.19365932    -0.36200
N775        N  0.19342802  0.05871146  0.22006729    -0.28300
C776        C  0.16091497  0.07104505  0.20485130    -0.03600
C777        C  0.16698491  0.07907052  0.16716090     0.05000
C778        C  0.20466836  0.07099304  0.16111692     0.03100
H779        H  0.13474275  0.07398146  0.22008484     0.08200
H780        H  0.21991601  0.07388354  0.13494614     0.07100
N781        N  0.22531840  0.33058485  0.02054310    -0.27300
N782        N  0.25346797  0.32968309  0.99628008    -0.35200
C783        C  0.26739410  0.36425908  0.99102365     0.01000
C784        C  0.24659553  0.38879454  0.01223922     0.07000
C785        C  0.21954705  0.36682787  0.03025638    -0.06100
H786        H  0.29100298  0.37092738  0.97289715     0.07700
H787        H  0.19806445  0.37639957  0.04952719     0.08900
Cu788      Cu  0.27795842  0.28211541  0.97724875     0.44200
Cu789      Cu  0.20143777  0.28030658  0.04118082     0.42000
Cu790      Cu  0.27502232  0.20791913  0.04246207     0.43900
N791        N  0.32532633  0.25826600  0.99738890    -0.34700
N792        N  0.32559642  0.23071911  0.02220300    -0.29000
C793        C  0.36155993  0.22464915  0.03243064    -0.05100
C794        C  0.38409029  0.25088572  0.01407810     0.07200
C795        C  0.36016293  0.27159785  0.99221323     0.00900
H796        H  0.37055439  0.20345771  0.05219968     0.08600
H797        H  0.36743548  0.29461321  0.97364570     0.07700
N798        N  0.21860843  0.19773605  0.05695412    -0.36200
N799        N  0.19187302  0.22371339  0.05658268    -0.28300
C800        C  0.15918282  0.20765303  0.06754837    -0.03600
C801        C  0.16555242  0.16988097  0.07483825     0.05000
C802        C  0.20354173  0.16473365  0.06809748     0.03100
H803        H  0.13277592  0.22246262  0.07049035     0.08200
H804        H  0.21920395  0.13894664  0.07153418     0.07100
C805        C  0.41337206  0.40942128  0.59471985     0.86500
C806        C  0.43608158  0.38362795  0.62119014    -0.53800
C807        C  0.41424597  0.36169741  0.64426527     0.09400
C808        C  0.37176153  0.36741735  0.63864300     0.20300
C809        C  0.38691174  0.38263762  0.57344317    -0.54500
C810        C  0.36517473  0.36054843  0.59636033     0.09500
C811        C  0.38724785  0.43185797  0.62119389    -0.54000
C812        C  0.36552988  0.40989102  0.64428685     0.10100
H813        H  0.46658113  0.38285705  0.62169033     0.14600
H814        H  0.35403653  0.34959179  0.65723977     0.00300
H815        H  0.38542152  0.38131978  0.54298767     0.14900
H816        H  0.38610266  0.46234113  0.62169395     0.14700
C817        C  0.59441148  0.40934019  0.41390158     0.86500
C818        C  0.62089003  0.43176253  0.38776800    -0.53800
C819        C  0.64399415  0.40978473  0.36607235     0.09400
C820        C  0.63835917  0.36731487  0.37233548     0.20300
C821        C  0.57315766  0.38253706  0.38744164    -0.54500
C822        C  0.59608919  0.36044382  0.36572438     0.09500
C823        C  0.62087288  0.38356321  0.43664517    -0.54000
C824        C  0.64395707  0.36161489  0.41483377     0.10100
H825        H  0.62137651  0.46224504  0.38659223     0.14600
H826        H  0.65696329  0.34948226  0.35462625     0.00300
H827        H  0.54270811  0.38122313  0.38592322     0.14900
H828        H  0.62135745  0.38281371  0.46714958     0.14700
C829        C  0.60023912  0.59739688  0.60071275     0.86500
C830        C  0.62647737  0.57517278  0.62695085    -0.53800
C831        C  0.64862623  0.59742810  0.64911668     0.09400
C832        C  0.64252194  0.63979718  0.64301861     0.20300
C833        C  0.57793632  0.62362952  0.62697004    -0.54500
C834        C  0.60006668  0.64579368  0.64917863     0.09500
C835        C  0.62648517  0.62364816  0.57841898    -0.54000
C836        C  0.64868364  0.64581209  0.60055925     0.10100
H837        H  0.62745968  0.54469792  0.62791784     0.14600
H838        H  0.66048752  0.65787393  0.66099424     0.00300
H839        H  0.54744377  0.62461169  0.62792235     0.14900
H840        H  0.62744102  0.62463879  0.54792070     0.14700
C841        C  0.41222423  0.59245555  0.41272354     0.86500
C842        C  0.38614773  0.61895020  0.43529303    -0.53800
C843        C  0.36432691  0.64188882  0.41336365     0.09400
C844        C  0.37040036  0.63611230  0.37088732     0.20300
C845        C  0.38563106  0.57104303  0.38607374    -0.54500
C846        C  0.36370129  0.59383060  0.36413820     0.09500
C847        C  0.43479363  0.61899112  0.38669735    -0.54000
C848        C  0.41287300  0.64192595  0.36487088     0.10100
H849        H  0.38516469  0.61961273  0.46579046     0.14600
H850        H  0.35265094  0.65462079  0.35312743     0.00300
H851        H  0.38426857  0.54059711  0.38468401     0.14900
H852        H  0.46528745  0.61967346  0.38573966     0.14700
C853        C  0.53184748  0.52991477  0.53226096     0.86500
C854        C  0.50578628  0.55230345  0.50617743    -0.53800
C855        C  0.48332965  0.53072480  0.48371185     0.09400
C856        C  0.48941943  0.48759352  0.48979997     0.20300
C857        C  0.50564936  0.50378485  0.55455828    -0.54500
C858        C  0.48327492  0.48138330  0.53288813     0.09500
C859        C  0.55415931  0.50377952  0.50607976    -0.54000
C860        C  0.53250928  0.48137406  0.48368941     0.10100
H861        H  0.50516757  0.58281438  0.50557279     0.14600
H862        H  0.47144370  0.46957816  0.47181363     0.00300
H863        H  0.50502657  0.50294274  0.58508371     0.14900
H864        H  0.58468068  0.50292856  0.50548837     0.14700
C865        C  0.45680466  0.54853640  0.45723815    -0.13300
C866        C  0.43634461  0.56735690  0.43682670    -0.14900
C867        C  0.55611706  0.55389014  0.55655315    -0.13300
C868        C  0.57602195  0.57334343  0.57647799    -0.14900
C869        C  0.56916408  0.43361082  0.43765012    -0.13300
C870        C  0.55023653  0.45441173  0.45763465    -0.14900
C871        C  0.43715388  0.43367366  0.56949363    -0.13300
C872        C  0.45717966  0.45445240  0.55059052    -0.14900
C873        C  0.06572567  0.93351127  0.93413171    -0.13300
C874        C  0.04574535  0.95433471  0.95304134    -0.14900
C875        C  0.95272716  0.95435919  0.04599209    -0.13300
C876        C  0.93378950  0.93354679  0.06596093    -0.14900
C877        C  0.94681650  0.05380412  0.94702366    -0.13300
C878        C  0.92686889  0.07321293  0.92708552    -0.14900
C879        C  0.04613238  0.04854177  0.04639108    -0.13300
C880        C  0.06657789  0.06736486  0.06682263    -0.14900
loop_ 
_geom_bond_atom_site_label_1 
_geom_bond_atom_site_label_2 
_geom_bond_distance 
_geom_bond_site_symmetry_2 
_ccdc_geom_bond_type 
C1            C2   1.546       .  S
C1            C7   1.544       .  S
C1            C5   1.546       .  S
C1          C880   1.509       .  S
C2            H9   1.086       .  S
C2            C3   1.372       .  D
C3            C4   1.540       .  S
C3          C753   1.487       .  S
C4            C8   1.543       .  S
C4            C6   1.540       .  S
C4           H10   1.111       .  S
C5           H11   1.086       .  S
C5            C6   1.372       .  D
C6          C801   1.487       .  S
C7           H12   1.086       .  S
C7            C8   1.371       .  D
C8          C777   1.490       .  S
C13          C14   1.539       .  S
C13          C19   1.541       .  S
C13          C17   1.539       .  S
C13         C878   1.492       .  S
C14          H21   1.086       .  S
C14          C15   1.368       .  D
C15          C16   1.541       .  S
C15         C705   1.480       .  S
C16          C20   1.539       .  S
C16          C18   1.541       .  S
C16          H22   1.111       .  S
C17          H23   1.086       .  S
C17          C18   1.368       .  D
C18         C567   1.480       .  S
C19          H24   1.086       .  S
C19          C20   1.370       .  D
C20         C405   1.480       .  S
C25          C26   1.544       .  S
C25          C31   1.546       .  S
C25          C29   1.541       .  S
C25         C876   1.504       .  S
C26          H33   1.086       .  S
C26          C27   1.371       .  D
C27          C28   1.541       .  S
C27         C605   1.486       .  S
C28          C32   1.539       .  S
C28          C30   1.543       .  S
C28          H34   1.111       .  S
C29          H35   1.086       .  S
C29          C30   1.370       .  D
C30         C505   1.486       .  S
C31          H36   1.086       .  S
C31          C32   1.372       .  D
C32         C205   1.486       .  S
C37          C38   1.546       .  S
C37          C43   1.544       .  S
C37          C41   1.541       .  S
C37         C873   1.504       .  S
C38          H45   1.086       .  S
C38          C39   1.372       .  D
C39          C40   1.539       .  S
C39         C305   1.486       .  S
C40          C44   1.541       .  S
C40          C42   1.543       .  S
C40          H46   1.111       .  S
C41          H47   1.086       .  S
C41          C42   1.370       .  D
C42         C467   1.486       .  S
C43          H48   1.086       .  S
C43          C44   1.371       .  D
C44         C667   1.486       .  S
C49          C50   1.537       .  S
C49          C55   1.535       .  S
C49          C53   1.535       .  S
C49         C877   1.493       .  S
C50          H57   1.086       .  S
C50          C51   1.368   1_656  D
C51          C52   1.566   1_545  S
C51         C879   1.479       .  S
C52          C56   1.564   1_455  S
C52          C54   1.564   1_554  S
C52          H58   1.110       .  S
C53          H59   1.087       .  S
C53          C54   1.367   1_645  D
C54         C874   1.474       .  S
C55          H60   1.087       .  S
C55          C56   1.367   1_546  D
C56         C875   1.475       .  S
N61          N62   1.321       .  A
N61          C65   1.348       .  A
N61         Cu69   2.098       .  S
N62          C63   1.340       .  A
N62         Cu68   2.024       .  S
C63          C64   1.370       .  A
C63          H66   1.083       .  S
C64          C65   1.390       .  A
C64         C268   1.460       .  S
C65          H67   1.081       .  S
Cu68         N71   2.024       .  S
Cu69         N79   2.100       .  S
Cu70         N72   2.094       .  S
Cu70         N78   2.096       .  S
N71          N72   1.320       .  A
N71          C75   1.340       .  A
N72          C73   1.348       .  A
C73          C74   1.389       .  A
C73          H76   1.080       .  S
C74          C75   1.371       .  A
C74         C370   1.461       .  S
C75          H77   1.083       .  S
N78          N79   1.326       .  A
N78          C82   1.349       .  A
N79          C80   1.350       .  A
C80          C81   1.385       .  A
C80          H83   1.082       .  S
C81         C836   1.480       .  S
C81          C82   1.383       .  A
C82          H84   1.081       .  S
N85          N86   1.321       .  A
N85          C89   1.348       .  A
N85         Cu93   2.098       .  S
N86          C87   1.340       .  A
N86         Cu92   2.024       .  S
C87          C88   1.370       .  A
C87          H90   1.083       .  S
C88          C89   1.390       .  A
C88         C169   1.460       .  S
C89          H91   1.080       .  S
Cu92         N95   2.024       .  S
Cu93        N103   2.100       .  S
Cu94         N96   2.093       .  S
Cu94        N102   2.095       .  S
N95          N96   1.320       .  A
N95          C99   1.340       .  A
N96          C97   1.348       .  A
C97          C98   1.389       .  A
C97         H100   1.080       .  S
C98          C99   1.371       .  A
C98         C381   1.460       .  S
C99         H101   1.083       .  S
N102        N103   1.326       .  A
N102        C106   1.349       .  A
N103        C104   1.350       .  A
C104        C105   1.384       .  A
C104        H107   1.082       .  S
C105        C834   1.479       .  S
C105        C106   1.383       .  A
C106        H108   1.081       .  S
N109        N110   1.320       .  A
N109        C113   1.351       .  A
N109       Cu117   2.112       .  S
N110        C111   1.340       .  A
N110       Cu116   2.020       .  S
C111        C112   1.370       .  A
C111        H114   1.083       .  S
C112        C113   1.394       .  A
C112        C583   1.464       .  S
C113        H115   1.080       .  S
Cu116       N119   2.020       .  S
Cu117       N127   2.115       .  S
Cu118       N120   2.099       .  S
Cu118       N126   2.102       .  S
N119        N120   1.319       .  A
N119        C123   1.339       .  A
N120        C121   1.349       .  A
C121        C122   1.392       .  A
C121        H124   1.081       .  S
C122        C123   1.370       .  A
C122        C170   1.461       .  S
C123        H125   1.083       .  S
N126        N127   1.327       .  A
N126        C130   1.350       .  A
N127        C128   1.352       .  A
C128        C129   1.388       .  A
C128        H131   1.082       .  S
C129        C848   1.486       .  S
C129        C130   1.384       .  A
C130        H132   1.081       .  S
N133        N134   1.321       .  A
N133        C137   1.350       .  A
N133       Cu141   2.109       .  S
N134        C135   1.340       .  A
N134       Cu140   2.024       .  S
C135        C136   1.370       .  A
C135        H138   1.083       .  S
C136        C137   1.393       .  A
C136        C481   1.464       .  S
C137        H139   1.080       .  S
Cu140       N143   2.024       .  S
Cu141       N151   2.111       .  S
Cu142       N144   2.100       .  S
Cu142       N150   2.102       .  S
N143        N144   1.320       .  A
N143        C147   1.340       .  A
N144        C145   1.349       .  A
C145        C146   1.391       .  A
C145        H148   1.080       .  S
C146        C147   1.372       .  A
C146        C181   1.463       .  S
C147        H149   1.083       .  S
N150        N151   1.326       .  A
N150        C154   1.350       .  A
N151        C152   1.352       .  A
C152        C153   1.387       .  A
C152        H155   1.083       .  S
C153        C819   1.486       .  S
C153        C154   1.384       .  A
C154        H156   1.081       .  S
O157       Cu165   2.038       .  S
O157        C167   1.284       .  A
O158       Cu165   2.038       .  S
O158        C168   1.284   1_554  A
O159       Cu165   1.972   1_556  S
O159        C169   1.269       .  A
O160       Cu165   1.973       .  S
O160        C170   1.269       .  A
O161       Cu166   2.036       .  S
O161        C170   1.284       .  A
O162       Cu166   2.036   1_556  S
O162        C169   1.284       .  A
O163       Cu166   1.980   1_556  S
O163        C168   1.270       .  A
O164       Cu166   1.980       .  S
O164        C167   1.270       .  A
Cu165      Cu166   2.379       .  S
C167        C188   1.465       .  S
C168        C450   1.464       .  S
O171       Cu179   1.979       .  S
O171        C181   1.270       .  A
O172       Cu179   1.977   1_556  S
O172        C182   1.270       .  A
O173       Cu179   2.032       .  S
O173        C183   1.283       .  A
O174       Cu179   2.032       .  S
O174        C184   1.283       .  A
O175       Cu180   1.976       .  S
O175        C184   1.270       .  A
O176       Cu180   1.977       .  S
O176        C183   1.270       .  A
O177       Cu180   2.034   1_556  S
O177        C182   1.283       .  A
O178       Cu180   2.035       .  S
O178        C181   1.284       .  A
Cu179      Cu180   2.380       .  S
C182        C212   1.461       .  S
C183        C550   1.461       .  S
C184        C198   1.461       .  S
N185        N186   1.321   1_554  A
N185        C189   1.351       .  A
N185       Cu193   2.110       .  S
N186        C187   1.340       .  A
N186       Cu192   2.024       .  S
C187        C188   1.371   1_556  A
C187        H190   1.083       .  S
C188        C189   1.393       .  A
C189        H191   1.080       .  S
Cu192       N195   2.023       .  S
Cu193       N203   2.113       .  S
Cu194       N196   2.098       .  S
Cu194       N202   2.100       .  S
N195        N196   1.320   1_556  A
N195        C199   1.340       .  A
N196        C197   1.349       .  A
C197        C198   1.390       .  A
C197        H200   1.080       .  S
C198        C199   1.371   1_554  A
C199        H201   1.083       .  S
N202        N203   1.326       .  A
N202        C206   1.350       .  A
N203        C204   1.352       .  A
C204        C205   1.387       .  A
C204        H207   1.083       .  S
C205        C206   1.384       .  A
C206        H208   1.081       .  S
N209        N210   1.320       .  A
N209        C213   1.348       .  A
N209       Cu217   2.097       .  S
N210        C211   1.340       .  A
N210       Cu216   2.025       .  S
C211        C212   1.371       .  A
C211        H214   1.083       .  S
C212        C213   1.390       .  A
C213        H215   1.080       .  S
Cu216       N219   2.025       .  S
Cu217       N227   2.099       .  S
Cu218       N220   2.097       .  S
Cu218       N226   2.099       .  S
N219        N220   1.320       .  A
N219        C223   1.340       .  A
N220        C221   1.348       .  A
C221        C222   1.390       .  A
C221        H224   1.080       .  S
C222        C223   1.371       .  A
C222        C283   1.461       .  S
C223        H225   1.083       .  S
N226        N227   1.326       .  A
N226        C230   1.349       .  A
N227        C228   1.350       .  A
C228        C229   1.384       .  A
C228        H231   1.081       .  S
C229        C831   1.480       .  S
C229        C230   1.384       .  A
C230        H232   1.081       .  S
N233        N234   1.320       .  A
N233        C237   1.351       .  A
N233       Cu241   2.112       .  S
N234        C235   1.340       .  A
N234       Cu240   2.020       .  S
C235        C236   1.370       .  A
C235        H238   1.083       .  S
C236        C237   1.394       .  A
C236        C646   1.465       .  S
C237        H239   1.080       .  S
Cu240       N243   2.020       .  S
Cu241       N251   2.115       .  S
Cu242       N244   2.100       .  S
Cu242       N250   2.103       .  S
N243        N244   1.319       .  A
N243        C247   1.339       .  A
N244        C245   1.349       .  A
C245        C246   1.392       .  A
C245        H248   1.081       .  S
C246        C247   1.370       .  A
C246        C267   1.461       .  S
C247        H249   1.083       .  S
N250        N251   1.327       .  A
N250        C254   1.350       .  A
N251        C252   1.352       .  A
C252        C253   1.388       .  A
C252        H255   1.082       .  S
C253        C843   1.487       .  S
C253        C254   1.384       .  A
C254        H256   1.081       .  S
O257       Cu265   1.973       .  S
O257        C267   1.269       .  A
O258       Cu265   1.972   1_655  S
O258        C268   1.269       .  A
O259       Cu265   2.038   1_655  S
O259        C269   1.284       .  A
O260       Cu265   2.038       .  S
O260        C270   1.284       .  A
O261       Cu266   1.980       .  S
O261        C270   1.270       .  A
O262       Cu266   1.980   1_655  S
O262        C269   1.270       .  A
O263       Cu266   2.036   1_655  S
O263        C268   1.284       .  A
O264       Cu266   2.036       .  S
O264        C267   1.284       .  A
Cu265      Cu266   2.379       .  S
C269        C488   1.464       .  S
C270        C288   1.465       .  S
O271       Cu279   1.977       .  S
O271        C281   1.270       .  A
O272       Cu279   1.976       .  S
O272        C282   1.270       .  A
O273       Cu279   2.033   1_655  S
O273        C283   1.283       .  A
O274       Cu279   2.035       .  S
O274        C284   1.283       .  A
O275       Cu280   1.979       .  S
O275        C284   1.270       .  A
O276       Cu280   1.977   1_655  S
O276        C283   1.270       .  A
O277       Cu280   2.032       .  S
O277        C282   1.283       .  A
O278       Cu280   2.033       .  S
O278        C281   1.283       .  A
Cu279      Cu280   2.380       .  S
C281        C688   1.461       .  S
C282        C298   1.461       .  S
C284        C322   1.463       .  S
N285        N286   1.321   1_455  A
N285        C289   1.351       .  A
N285       Cu293   2.110       .  S
N286        C287   1.340       .  A
N286       Cu292   2.024       .  S
C287        C288   1.371   1_655  A
C287        H290   1.083       .  S
C288        C289   1.393       .  A
C289        H291   1.080       .  S
Cu292       N295   2.023       .  S
Cu293       N303   2.112       .  S
Cu294       N296   2.097       .  S
Cu294       N302   2.100       .  S
N295        N296   1.320   1_655  A
N295        C299   1.340       .  A
N296        C297   1.349       .  A
C297        C298   1.390       .  A
C297        H300   1.080       .  S
C298        C299   1.371   1_455  A
C299        H301   1.083       .  S
N302        N303   1.326       .  A
N302        C306   1.350       .  A
N303        C304   1.352       .  A
C304        C305   1.387       .  A
C304        H307   1.083       .  S
C305        C306   1.384       .  A
C306        H308   1.081       .  S
N309        N310   1.321       .  A
N309        C313   1.350       .  A
N309       Cu317   2.109       .  S
N310        C311   1.340       .  A
N310       Cu316   2.024       .  S
C311        C312   1.370       .  A
C311        H314   1.083       .  S
C312        C313   1.393       .  A
C312        C443   1.464       .  S
C313        H315   1.080       .  S
Cu316       N319   2.024       .  S
Cu317       N327   2.111       .  S
Cu318       N320   2.100       .  S
Cu318       N326   2.102       .  S
N319        N320   1.320       .  A
N319        C323   1.340       .  A
N320        C321   1.349       .  A
C321        C322   1.391       .  A
C321        H324   1.080       .  S
C322        C323   1.372       .  A
C323        H325   1.083       .  S
N326        N327   1.326       .  A
N326        C330   1.350       .  A
N327        C328   1.352       .  A
C328        C329   1.387       .  A
C328        H331   1.083       .  S
C329        C812   1.486       .  S
C329        C330   1.384       .  A
C330        H332   1.081       .  S
N333        N334   1.321       .  A
N333        C337   1.351       .  A
N333       Cu341   2.110       .  S
N334        C335   1.340       .  A
N334       Cu340   2.024       .  S
C335        C336   1.371       .  A
C335        H338   1.083       .  S
C336        C337   1.393       .  A
C336        C681   1.465       .  S
C337        H339   1.080       .  S
Cu340       N343   2.023       .  S
Cu341       N351   2.112       .  S
Cu342       N344   2.098       .  S
Cu342       N350   2.100       .  S
N343        N344   1.320       .  A
N343        C347   1.340       .  A
N344        C345   1.349       .  A
C345        C346   1.390       .  A
C345        H348   1.080       .  S
C346        C347   1.371       .  A
C346        C369   1.461       .  S
C347        H349   1.083       .  S
N350        N351   1.326       .  A
N350        C354   1.350       .  A
N351        C352   1.352       .  A
C352        C353   1.387       .  A
C352        H355   1.083       .  S
C353        C824   1.486       .  S
C353        C354   1.384       .  A
C354        H356   1.081       .  S
O357       Cu365   2.035   1_565  S
O357        C367   1.283       .  A
O358       Cu365   2.034       .  S
O358        C368   1.283       .  A
O359       Cu365   1.976       .  S
O359        C369   1.270       .  A
O360       Cu365   1.976   1_565  S
O360        C370   1.270       .  A
O361       Cu366   2.032   1_565  S
O361        C370   1.283       .  A
O362       Cu366   2.032       .  S
O362        C369   1.283       .  A
O363       Cu366   1.977       .  S
O363        C368   1.270       .  A
O364       Cu366   1.979   1_565  S
O364        C367   1.270       .  A
Cu365      Cu366   2.380       .  S
C367        C598   1.463       .  S
C368        C398   1.461       .  S
O371       Cu379   2.032   1_565  S
O371        C381   1.283       .  A
O372       Cu379   2.031       .  S
O372        C382   1.283       .  A
O373       Cu379   1.979   1_565  S
O373        C383   1.270       .  A
O374       Cu379   1.977       .  S
O374        C384   1.270       .  A
O375       Cu380   2.034       .  S
O375        C384   1.283       .  A
O376       Cu380   2.035   1_565  S
O376        C383   1.283       .  A
O377       Cu380   1.976       .  S
O377        C382   1.270       .  A
O378       Cu380   1.977   1_565  S
O378        C381   1.270       .  A
Cu379      Cu380   2.380       .  S
C382        C412   1.461       .  S
C383        C660   1.463       .  S
C384        C388   1.461       .  S
N385        N386   1.321   1_545  A
N385        C389   1.348       .  A
N385       Cu393   2.097       .  S
N386        C387   1.340       .  A
N386       Cu392   2.025       .  S
C387        C388   1.371   1_565  A
C387        H390   1.083       .  S
C388        C389   1.390       .  A
C389        H391   1.080       .  S
Cu392       N395   2.025       .  S
Cu393       N403   2.098       .  S
Cu394       N396   2.097       .  S
Cu394       N402   2.098       .  S
N395        N396   1.321   1_565  A
N395        C399   1.340       .  A
N396        C397   1.348       .  A
C397        C398   1.390       .  A
C397        H400   1.080       .  S
C398        C399   1.371   1_545  A
C399        H401   1.083       .  S
N402        N403   1.326       .  A
N402        C406   1.349       .  A
N403        C404   1.349       .  A
C404        C405   1.384       .  A
C404        H407   1.081       .  S
C405        C406   1.384       .  A
C406        H408   1.081       .  S
N409        N410   1.320       .  A
N409        C413   1.349       .  A
N409       Cu417   2.097       .  S
N410        C411   1.340       .  A
N410       Cu416   2.023       .  S
C411        C412   1.371       .  A
C411        H414   1.083       .  S
C412        C413   1.390       .  A
C413        H415   1.081       .  S
Cu416       N419   2.024       .  S
Cu417       N427   2.099       .  S
Cu418       N420   2.110       .  S
Cu418       N426   2.112       .  S
N419        N420   1.321       .  A
N419        C423   1.340       .  A
N420        C421   1.351       .  A
C421        C422   1.393       .  A
C421        H424   1.080       .  S
C422        C423   1.371       .  A
C422        C544   1.465       .  S
C423        H425   1.083       .  S
N426        N427   1.326       .  A
N426        C430   1.352       .  A
N427        C428   1.350       .  A
C428        C429   1.384       .  A
C428        H431   1.081       .  S
C429        C807   1.486       .  S
C429        C430   1.387       .  A
C430        H432   1.083       .  S
O433       Cu441   2.043   1_556  S
O433        C443   1.285       .  A
O434       Cu441   2.044       .  S
O434        C444   1.285       .  A
O435       Cu441   1.971   1_556  S
O435        C445   1.268       .  A
O436       Cu441   1.972       .  S
O436        C446   1.268       .  A
O437       Cu442   2.044       .  S
O437        C446   1.285       .  A
O438       Cu442   2.044   1_556  S
O438        C445   1.285       .  A
O439       Cu442   1.976       .  S
O439        C444   1.269       .  A
O440       Cu442   1.974   1_556  S
O440        C443   1.269       .  A
Cu441      Cu442   2.379       .  S
C444        C512   1.466       .  S
C445        C460   1.463       .  S
C446        C784   1.464       .  S
N447        N448   1.320   1_556  A
N447        C451   1.350       .  A
N447       Cu455   2.101       .  S
N448        C449   1.340       .  A
N448       Cu454   2.023       .  S
C449        C450   1.371   1_554  A
C449        H452   1.083       .  S
C450        C451   1.392       .  A
C451        H453   1.080       .  S
Cu454       N457   2.024       .  S
Cu455       N465   2.103       .  S
Cu456       N458   2.108       .  S
Cu456       N464   2.110       .  S
N457        N458   1.321   1_554  A
N457        C461   1.340       .  A
N458        C459   1.350       .  A
C459        C460   1.393       .  A
C459        H462   1.080       .  S
C460        C461   1.370   1_556  A
C461        H463   1.083       .  S
N464        N465   1.326       .  A
N464        C468   1.352       .  A
N465        C466   1.350       .  A
C466        C467   1.385       .  A
C466        H469   1.081       .  S
C467        C468   1.387       .  A
C468        H470   1.081       .  S
O471       Cu479   1.974   1_655  S
O471        C481   1.269       .  A
O472       Cu479   1.976       .  S
O472        C482   1.269       .  A
O473       Cu479   2.045   1_655  S
O473        C483   1.285       .  A
O474       Cu479   2.044       .  S
O474        C484   1.285       .  A
O475       Cu480   1.972       .  S
O475        C484   1.268       .  A
O476       Cu480   1.971   1_655  S
O476        C483   1.268       .  A
O477       Cu480   2.043       .  S
O477        C482   1.285       .  A
O478       Cu480   2.042   1_655  S
O478        C481   1.285       .  A
Cu479      Cu480   2.379       .  S
C482        C522   1.465       .  S
C483        C498   1.464       .  S
C484        C736   1.465       .  S
N485        N486   1.320   1_655  A
N485        C489   1.350       .  A
N485       Cu493   2.101       .  S
N486        C487   1.340       .  A
N486       Cu492   2.024       .  S
C487        C488   1.371   1_455  A
C487        H490   1.083       .  S
C488        C489   1.392       .  A
C489        H491   1.080       .  S
Cu492       N495   2.024       .  S
Cu493       N503   2.104       .  S
Cu494       N496   2.109       .  S
Cu494       N502   2.110       .  S
N495        N496   1.321   1_455  A
N495        C499   1.341       .  A
N496        C497   1.350       .  A
C497        C498   1.393       .  A
C497        H500   1.080       .  S
C498        C499   1.371   1_655  A
C499        H501   1.083       .  S
N502        N503   1.326       .  A
N502        C506   1.352       .  A
N503        C504   1.350       .  A
C504        C505   1.385       .  A
C504        H507   1.081       .  S
C505        C506   1.387       .  A
C506        H508   1.081       .  S
N509        N510   1.320       .  A
N509        C513   1.351       .  A
N509       Cu517   2.111       .  S
N510        C511   1.340       .  A
N510       Cu516   2.023       .  S
C511        C512   1.371       .  A
C511        H514   1.083       .  S
C512        C513   1.394       .  A
C513        H515   1.080       .  S
Cu516       N519   2.023       .  S
Cu517       N527   2.113       .  S
Cu518       N520   2.111       .  S
Cu518       N526   2.113       .  S
N519        N520   1.320       .  A
N519        C523   1.340       .  A
N520        C521   1.351       .  A
C521        C522   1.394       .  A
C521        H524   1.080       .  S
C522        C523   1.371       .  A
C523        H525   1.083       .  S
N526        N527   1.327       .  A
N526        C530   1.352       .  A
N527        C528   1.352       .  A
C528        C529   1.387       .  A
C528        H531   1.081       .  S
C529        C846   1.490       .  S
C529        C530   1.387       .  A
C530        H532   1.081       .  S
O533       Cu541   1.980       .  S
O533        C543   1.270       .  A
O534       Cu541   1.980   1_556  S
O534        C544   1.270       .  A
O535       Cu541   2.036       .  S
O535        C545   1.284       .  A
O536       Cu541   2.036       .  S
O536        C546   1.284       .  A
O537       Cu542   1.972       .  S
O537        C546   1.269       .  A
O538       Cu542   1.973       .  S
O538        C545   1.269       .  A
O539       Cu542   2.038   1_556  S
O539        C544   1.284       .  A
O540       Cu542   2.037       .  S
O540        C543   1.284       .  A
Cu541      Cu542   2.379       .  S
C543        C622   1.464       .  S
C545        C794   1.461       .  S
C546        C560   1.460   1_554  S
N547        N548   1.320   1_556  A
N547        C551   1.348       .  A
N547       Cu555   2.093       .  S
N548        C549   1.340       .  A
N548       Cu554   2.024       .  S
C549        C550   1.371       .  A
C549        H552   1.083       .  S
C550        C551   1.389   1_554  A
C551        H553   1.080       .  S
Cu554       N557   2.024       .  S
Cu555       N565   2.095       .  S
Cu556       N558   2.099       .  S
Cu556       N564   2.101       .  S
N557        N558   1.321   1_554  A
N557        C561   1.340       .  A
N558        C559   1.348       .  A
C559        C560   1.390       .  A
C559        H562   1.081       .  S
C560        C561   1.370   1_556  A
C561        H563   1.083       .  S
N564        N565   1.326       .  A
N564        C568   1.350       .  A
N565        C566   1.349       .  A
C566        C567   1.383       .  A
C566        H569   1.081       .  S
C567        C568   1.385       .  A
C568        H570   1.081       .  S
O571       Cu579   1.976       .  S
O571        C581   1.269       .  A
O572       Cu579   1.974   1_565  S
O572        C582   1.269       .  A
O573       Cu579   2.044   1_565  S
O573        C583   1.285       .  A
O574       Cu579   2.044       .  S
O574        C584   1.285       .  A
O575       Cu580   1.971       .  S
O575        C584   1.268       .  A
O576       Cu580   1.972   1_565  S
O576        C583   1.268       .  A
O577       Cu580   2.043   1_565  S
O577        C582   1.285       .  A
O578       Cu580   2.044       .  S
O578        C581   1.285       .  A
Cu579      Cu580   2.379       .  S
C581        C770   1.466       .  S
C582        C588   1.464       .  S
C584        C612   1.463       .  S
N585        N586   1.321   1_565  A
N585        C589   1.350       .  A
N585       Cu593   2.109       .  S
N586        C587   1.340       .  A
N586       Cu592   2.024       .  S
C587        C588   1.370   1_545  A
C587        H590   1.083       .  S
C588        C589   1.393       .  A
C589        H591   1.080       .  S
Cu592       N595   2.024       .  S
Cu593       N603   2.111       .  S
Cu594       N596   2.100       .  S
Cu594       N602   2.102       .  S
N595        N596   1.320   1_545  A
N595        C599   1.340       .  A
N596        C597   1.349       .  A
C597        C598   1.391       .  A
C597        H600   1.080       .  S
C598        C599   1.372   1_565  A
C599        H601   1.083       .  S
N602        N603   1.326       .  A
N602        C606   1.350       .  A
N603        C604   1.352       .  A
C604        C605   1.387       .  A
C604        H607   1.083       .  S
C605        C606   1.384       .  A
C606        H608   1.081       .  S
N609        N610   1.321       .  A
N609        C613   1.350       .  A
N609       Cu617   2.108       .  S
N610        C611   1.340       .  A
N610       Cu616   2.024       .  S
C611        C612   1.370       .  A
C611        H614   1.083       .  S
C612        C613   1.393       .  A
C613        H615   1.080       .  S
Cu616       N619   2.023       .  S
Cu617       N627   2.110       .  S
Cu618       N620   2.101       .  S
Cu618       N626   2.103       .  S
N619        N620   1.320       .  A
N619        C623   1.340       .  A
N620        C621   1.350       .  A
C621        C622   1.392       .  A
C621        H624   1.080       .  S
C622        C623   1.371       .  A
C623        H625   1.083       .  S
N626        N627   1.326       .  A
N626        C630   1.350       .  A
N627        C628   1.352       .  A
C628        C629   1.387       .  A
C628        H631   1.081       .  S
C629        C822   1.486       .  S
C629        C630   1.384       .  A
C630        H632   1.081       .  S
O633       Cu641   2.042   1_565  S
O633        C643   1.285       .  A
O634       Cu641   2.043       .  S
O634        C644   1.285       .  A
O635       Cu641   1.972       .  S
O635        C645   1.268       .  A
O636       Cu641   1.973   1_565  S
O636        C646   1.268       .  A
O637       Cu642   2.044   1_565  S
O637        C646   1.285       .  A
O638       Cu642   2.044       .  S
O638        C645   1.285       .  A
O639       Cu642   1.976       .  S
O639        C644   1.269       .  A
O640       Cu642   1.974   1_565  S
O640        C643   1.269       .  A
Cu641      Cu642   2.379       .  S
C643        C650   1.464       .  S
C644        C760   1.465       .  S
C645        C712   1.464       .  S
N647        N648   1.321   1_565  A
N647        C651   1.350       .  A
N647       Cu655   2.109       .  S
N648        C649   1.340       .  A
N648       Cu654   2.024       .  S
C649        C650   1.370   1_545  A
C649        H652   1.083       .  S
C650        C651   1.393       .  A
C651        H653   1.080       .  S
Cu654       N657   2.024       .  S
Cu655       N665   2.111       .  S
Cu656       N658   2.100       .  S
Cu656       N664   2.102       .  S
N657        N658   1.320   1_545  A
N657        C661   1.340       .  A
N658        C659   1.349       .  A
C659        C660   1.391       .  A
C659        H662   1.080       .  S
C660        C661   1.372   1_565  A
C661        H663   1.083       .  S
N664        N665   1.326       .  A
N664        C668   1.350       .  A
N665        C666   1.352       .  A
C666        C667   1.387       .  A
C666        H669   1.083       .  S
C667        C668   1.384       .  A
C668        H670   1.081       .  S
O671       Cu679   2.038   1_655  S
O671        C681   1.284       .  A
O672       Cu679   2.037       .  S
O672        C682   1.284       .  A
O673       Cu679   1.972       .  S
O673        C683   1.269       .  A
O674       Cu679   1.973       .  S
O674        C684   1.269       .  A
O675       Cu680   2.036       .  S
O675        C684   1.284       .  A
O676       Cu680   2.036       .  S
O676        C683   1.284       .  A
O677       Cu680   1.980       .  S
O677        C682   1.270       .  A
O678       Cu680   1.979   1_655  S
O678        C681   1.270       .  A
Cu679      Cu680   2.379       .  S
C682        C722   1.464       .  S
C683        C698   1.460   1_455  S
C684        C746   1.461       .  S
N685        N686   1.320   1_655  A
N685        C689   1.348       .  A
N685       Cu693   2.093       .  S
N686        C687   1.340       .  A
N686       Cu692   2.024       .  S
C687        C688   1.371       .  A
C687        H690   1.083       .  S
C688        C689   1.389   1_455  A
C689        H691   1.080       .  S
Cu692       N695   2.024       .  S
Cu693       N703   2.096       .  S
Cu694       N696   2.099       .  S
Cu694       N702   2.101       .  S
N695        N696   1.321   1_455  A
N695        C699   1.340       .  A
N696        C697   1.348       .  A
C697        C698   1.390       .  A
C697        H700   1.081       .  S
C698        C699   1.370   1_655  A
C699        H701   1.083       .  S
N702        N703   1.326       .  A
N702        C706   1.350       .  A
N703        C704   1.349       .  A
C704        C705   1.383       .  A
C704        H707   1.081       .  S
C705        C706   1.385       .  A
C706        H708   1.081       .  S
N709        N710   1.321       .  A
N709        C713   1.350       .  A
N709       Cu717   2.109       .  S
N710        C711   1.340       .  A
N710       Cu716   2.024       .  S
C711        C712   1.370       .  A
C711        H714   1.083       .  S
C712        C713   1.393       .  A
C713        H715   1.080       .  S
Cu716       N719   2.023       .  S
Cu717       N727   2.111       .  S
Cu718       N720   2.101       .  S
Cu718       N726   2.103       .  S
N719        N720   1.320       .  A
N719        C723   1.340       .  A
N720        C721   1.350       .  A
C721        C722   1.392       .  A
C721        H724   1.080       .  S
C722        C723   1.371       .  A
C723        H725   1.083       .  S
N726        N727   1.326       .  A
N726        C730   1.350       .  A
N727        C728   1.352       .  A
C728        C729   1.387       .  A
C728        H731   1.081       .  S
C729        C810   1.486       .  S
C729        C730   1.384       .  A
C730        H732   1.081       .  S
N733        N734   1.320   1_455  A
N733        C737   1.351       .  A
N733       Cu741   2.112       .  S
N734        C735   1.340       .  A
N734       Cu740   2.020       .  S
C735        C736   1.370   1_655  A
C735        H738   1.083       .  S
C736        C737   1.394       .  A
C737        H739   1.080       .  S
Cu740       N743   2.021       .  S
Cu741       N751   2.116       .  S
Cu742       N744   2.099       .  S
Cu742       N750   2.102       .  S
N743        N744   1.319   1_655  A
N743        C747   1.339       .  A
N744        C745   1.349       .  A
C745        C746   1.392       .  A
C745        H748   1.081       .  S
C746        C747   1.371   1_455  A
C747        H749   1.083       .  S
N750        N751   1.327       .  A
N750        C754   1.350       .  A
N751        C752   1.352       .  A
C752        C753   1.388       .  A
C752        H755   1.082       .  S
C753        C754   1.384       .  A
C754        H756   1.081       .  S
N757        N758   1.320   1_545  A
N757        C761   1.351       .  A
N757       Cu765   2.111       .  S
N758        C759   1.340       .  A
N758       Cu764   2.023       .  S
C759        C760   1.371   1_565  A
C759        H762   1.083       .  S
C760        C761   1.394       .  A
C761        H763   1.080       .  S
Cu764       N767   2.023       .  S
Cu765       N775   2.113       .  S
Cu766       N768   2.112       .  S
Cu766       N774   2.114       .  S
N767        N768   1.320   1_565  A
N767        C771   1.340       .  A
N768        C769   1.351       .  A
C769        C770   1.394       .  A
C769        H772   1.080       .  S
C770        C771   1.371   1_545  A
C771        H773   1.083       .  S
N774        N775   1.327       .  A
N774        C778   1.352       .  A
N775        C776   1.352       .  A
C776        C777   1.387       .  A
C776        H779   1.081       .  S
C777        C778   1.387       .  A
C778        H780   1.081       .  S
N781        N782   1.320   1_554  A
N781        C785   1.351       .  A
N781       Cu789   2.112       .  S
N782        C783   1.340       .  A
N782       Cu788   2.020       .  S
C783        C784   1.370   1_556  A
C783        H786   1.083       .  S
C784        C785   1.394       .  A
C785        H787   1.080       .  S
Cu788       N791   2.021       .  S
Cu789       N799   2.115       .  S
Cu790       N792   2.099       .  S
Cu790       N798   2.102       .  S
N791        N792   1.319   1_556  A
N791        C795   1.339       .  A
N792        C793   1.349       .  A
C793        C794   1.392       .  A
C793        H796   1.081       .  S
C794        C795   1.371   1_554  A
C795        H797   1.083       .  S
N798        N799   1.327       .  A
N798        C802   1.350       .  A
N799        C800   1.352       .  A
C800        C801   1.388       .  A
C800        H803   1.082       .  S
C801        C802   1.384       .  A
C802        H804   1.081       .  S
C805        C806   1.545       .  S
C805        C811   1.543       .  S
C805        C809   1.541       .  S
C805        C871   1.504       .  S
C806        H813   1.086       .  S
C806        C807   1.372       .  D
C807        C808   1.539       .  S
C808        C812   1.541       .  S
C808        C810   1.543       .  S
C808        H814   1.111       .  S
C809        H815   1.086       .  S
C809        C810   1.370       .  D
C811        H816   1.086       .  S
C811        C812   1.371       .  D
C817        C818   1.544       .  S
C817        C823   1.546       .  S
C817        C821   1.541       .  S
C817        C869   1.504       .  S
C818        H825   1.086       .  S
C818        C819   1.371       .  D
C819        C820   1.541       .  S
C820        C824   1.539       .  S
C820        C822   1.543       .  S
C820        H826   1.111       .  S
C821        H827   1.086       .  S
C821        C822   1.370       .  D
C823        H828   1.086       .  S
C823        C824   1.372       .  D
C829        C830   1.541       .  S
C829        C835   1.539       .  S
C829        C833   1.539       .  S
C829        C868   1.492       .  S
C830        H837   1.086       .  S
C830        C831   1.370       .  D
C831        C832   1.539       .  S
C832        C836   1.541       .  S
C832        C834   1.541       .  S
C832        H838   1.111       .  S
C833        H839   1.086       .  S
C833        C834   1.368       .  D
C835        H840   1.086       .  S
C835        C836   1.368       .  D
C841        C842   1.546       .  S
C841        C847   1.546       .  S
C841        C845   1.544       .  S
C841        C866   1.508       .  S
C842        H849   1.086       .  S
C842        C843   1.372       .  D
C843        C844   1.540       .  S
C844        C848   1.540       .  S
C844        C846   1.543       .  S
C844        H850   1.111       .  S
C845        H851   1.086       .  S
C845        C846   1.371       .  D
C847        H852   1.086       .  S
C847        C848   1.372       .  D
C853        C854   1.537       .  S
C853        C859   1.535       .  S
C853        C857   1.535       .  S
C853        C867   1.492       .  S
C854        H861   1.086       .  S
C854        C855   1.368       .  D
C855        C856   1.566       .  S
C855        C865   1.479       .  S
C856        C860   1.564       .  S
C856        C858   1.563       .  S
C856        H862   1.110       .  S
C857        H863   1.087       .  S
C857        C858   1.367       .  D
C858        C872   1.474       .  S
C859        H864   1.087       .  S
C859        C860   1.367       .  D
C860        C870   1.474       .  S
C865        C866   1.229       .  T
C867        C868   1.220       .  T
C869        C870   1.226       .  T
C871        C872   1.226       .  T
C873        C874   1.226       .  T
C875        C876   1.226       .  T
C877        C878   1.220       .  T
C879        C880   1.229       .  T
