geometry optimzed in LAMMPS
_audit_creation_date              2020-12-01 
_audit_creation_method            'lammps2cif' 
_symmetry_space_group_name_H-M    'P1' 
_symmetry_Int_Tables_number       1 
_symmetry_cell_setting            triclinic 
loop_ 
_symmetry_equiv_pos_as_xyz 
  x,y,z 
_cell_length_a                    37.53253984 
_cell_length_b                    24.732450718828666 
_cell_length_c                    30.188834691489777 
_cell_angle_alpha                 90.06003610457608 
_cell_angle_beta                  87.6981612821 
_cell_angle_gamma                 90.92710379192675 
loop_ 
_atom_site_label 
_atom_site_type_symbol 
_atom_site_fract_x 
_atom_site_fract_y 
_atom_site_fract_z 
_atom_site_charge 
O1          O  0.03917580  0.06154686  0.30297876    -0.72400
O2          O  0.96745502  0.44674862  0.31701344    -0.72600
O3          O  0.96665668  0.05283387  0.30978978    -0.72500
O4          O  0.03901136  0.45340565  0.30071121    -0.72500
O5          O  0.05388901  0.47122977  0.36793191    -0.72400
O6          O  0.96233232  0.03762138  0.38048941    -0.72400
O7          O  0.98492328  0.44069067  0.38454838    -0.72400
O8          O  0.03106097  0.06961701  0.37431557    -0.72600
V9          V  0.00400016  0.00324677  0.30657559     1.35200
V10         V  0.00847015  0.50721944  0.37571431     1.35200
C11         C  0.04659536  0.08535784  0.33911300     0.76900
C12         C  0.96473528  0.42436028  0.35517279     0.76900
C13         C  0.94918233  0.05803783  0.34588409     0.76800
C14         C  0.06131533  0.44943153  0.33033950     0.76700
C15         C  0.17631983  0.32052675  0.32642191     0.85900
C16         C  0.19123056  0.33795181  0.37023342    -0.54400
C17         C  0.20312274  0.29795055  0.39607823     0.08800
C18         C  0.19912521  0.24054981  0.37507970     0.19800
C19         C  0.20638880  0.28752271  0.30348902    -0.55100
C20         C  0.21839173  0.24509778  0.32842935     0.08900
C21         C  0.14793261  0.27801959  0.34042743    -0.54600
C22         C  0.15888791  0.23601002  0.36501941     0.09500
H23         H  0.19171099  0.37928084  0.38165157     0.14000
H24         H  0.20878245  0.20726233  0.39585979    -0.00300
H25         H  0.21452628  0.29339299  0.26889088     0.14300
H26         H  0.12050812  0.27991600  0.33062099     0.14100
C27         C  0.84888654  0.27958654  0.38832014     0.85900
C28         C  0.82034818  0.31125830  0.36608070    -0.54400
C29         C  0.79432317  0.28176031  0.34697448     0.08800
C30         C  0.79691000  0.21918174  0.35850590     0.19800
C31         C  0.82804074  0.24650038  0.42483047    -0.55100
C32         C  0.80006639  0.21538812  0.40981166     0.08900
C33         C  0.86004976  0.23899416  0.35211786    -0.54600
C34         C  0.83480746  0.20230770  0.34092496     0.09500
H35         H  0.82293031  0.35441962  0.36051017     0.14000
H36         H  0.77517625  0.19379107  0.34514359    -0.00300
H37         H  0.83522765  0.24654648  0.45926034     0.14300
H38         H  0.88744248  0.23366319  0.34047230     0.14100
C39         C  0.67450920  0.41204351  0.42782981     0.85900
C40         C  0.69323970  0.39851158  0.38401529    -0.54400
C41         C  0.70343433  0.44093336  0.35812039     0.08800
C42         C  0.69320309  0.99721768  0.37714937     0.19800
C43         C  0.70098132  0.45004259  0.45112989    -0.55100
C44         C  0.71212231  0.99357222  0.42198365     0.08900
C45         C  0.64414065  0.44923314  0.41461831    -0.54600
C46         C  0.65289347  0.99766395  0.39170808     0.09500
H47         H  0.69770880  0.35764390  0.37260085     0.14000
H48         H  0.70207022  0.03235142  0.35642142    -0.00300
H49         H  0.70766482  0.44468005  0.48550492     0.14300
H50         H  0.61643951  0.44335086  0.42549652     0.14100
O51         O  0.45862327  0.19278553  0.44645072    -0.72400
O52         O  0.53722566  0.28378689  0.45296833    -0.72600
O53         O  0.46801081  0.30042218  0.44332479    -0.72500
O54         O  0.53005571  0.17725434  0.44914463    -0.72500
O55         O  0.52504913  0.16906456  0.37819754    -0.72400
O56         O  0.48423975  0.30668788  0.37380413    -0.72400
O57         O  0.55154042  0.27028171  0.38363332    -0.72400
O58         O  0.45617960  0.20540826  0.37586997    -0.72600
V59         V  0.49838385  0.23828641  0.44687007     1.35200
V60         V  0.50411300  0.23773118  0.37862362     1.35200
C61         C  0.44117081  0.18806982  0.41218904     0.76900
C62         C  0.55971533  0.28878333  0.42165972     0.76900
C63         C  0.46688351  0.32572598  0.40644973     0.76800
C64         C  0.53919766  0.15349486  0.41291659     0.76700
C65         C  0.35368790  0.47988267  0.37617506     0.85900
C66         C  0.32259839  0.44334629  0.38897454    -0.54400
C67         C  0.29259350  0.46750628  0.40429641     0.08800
C68         C  0.29473081  0.02832031  0.39400091     0.19800
C69         C  0.33956798  0.50849958  0.33426609    -0.55100
C70         C  0.30643120  0.03123929  0.34334085     0.08900
C71         C  0.35543363  0.52572911  0.40963541    -0.54600
C72         C  0.32803924  0.05271548  0.41610976     0.09500
H73         H  0.32650991  0.39991551  0.39133657     0.14000
H74         H  0.26977826  0.04997033  0.40293389    -0.00300
H75         H  0.35353789  0.50843774  0.30209089     0.14300
H76         H  0.38136362  0.54003443  0.42017128     0.14100
O77         O  0.29972746  0.39491641  0.04017720    -0.72400
O78         O  0.24607174  0.30008788  0.45353125    -0.72600
O79         O  0.28706690  0.38992982  0.45173912    -0.72500
O80         O  0.25929459  0.30318021  0.04433180    -0.72500
O81         O  0.21168368  0.35143610  0.04412951    -0.72400
O82         O  0.24400625  0.44637668  0.46057912    -0.72400
O83         O  0.20212240  0.35607288  0.45796219    -0.72400
O84         O  0.25172611  0.44222887  0.04895821    -0.72600
V85         V  0.26804090  0.34429081  0.49734834     1.35200
V86         V  0.22419285  0.39447401  0.50373730     1.35200
C87         C  0.28250456  0.43100887  0.06125427     0.76900
C88         C  0.21695829  0.31602014  0.43904467     0.76900
C89         C  0.27298317  0.43410801  0.44035771     0.76800
C90         C  0.22844175  0.31248888  0.06082481     0.76700
O91         O  0.01663649  0.43382984  0.14348145    -0.72400
O92         O  0.96987671  0.06571863  0.14210812    -0.72600
O93         O  0.94909193  0.46288697  0.12490155    -0.72500
O94         O  0.03889474  0.03765046  0.15229828    -0.72500
O95         O  0.04009226  0.05533569  0.08198014    -0.72400
O96         O  0.97134139  0.44832105  0.05860905    -0.72400
O97         O  0.96910578  0.05718640  0.07066786    -0.72400
O98         O  0.04142334  0.44789993  0.07822721    -0.72600
V99         V  0.99388213  0.99986205  0.14305662     1.35200
V100        V  0.00518051  0.00236607  0.07583258     1.35200
C101        C  0.04083270  0.42263003  0.11524677     0.76900
C102        C  0.95732420  0.08030712  0.10618191     0.76900
C103        C  0.94566597  0.44307689  0.08612839     0.76800
C104        C  0.05492415  0.05917477  0.11828817     0.76700
C105        C  0.15678420  0.28558498  0.14814779     0.85900
C106        C  0.14480385  0.24307607  0.11449367    -0.54400
C107        C  0.16936010  0.20574021  0.10249776     0.08800
C108        C  0.20741921  0.22322160  0.11529027     0.19800
C109        C  0.17676202  0.25369577  0.18379524    -0.55100
C110        C  0.20393744  0.22124641  0.16680183     0.08900
C111        C  0.18646042  0.31570666  0.12248326    -0.54600
C112        C  0.21153557  0.28498752  0.10156007     0.09500
H113        H  0.11720068  0.23652222  0.10636047     0.14000
H114        H  0.22851588  0.19701017  0.10058373    -0.00300
H115        H  0.16916595  0.25485163  0.21880719     0.14300
H116        H  0.18545462  0.35859342  0.11568660     0.14100
C117        C  0.83081826  0.32165861  0.07526876     0.85900
C118        C  0.85802090  0.27945261  0.08891236    -0.54400
C119        C  0.84458614  0.23741154  0.11319379     0.08800
C120        C  0.80384173  0.24182860  0.12413664     0.19800
C121        C  0.80158666  0.28861081  0.05270813    -0.55100
C122        C  0.78775842  0.24582397  0.07741134     0.08900
C123        C  0.81377853  0.33927965  0.11933425    -0.54600
C124        C  0.79936105  0.29962507  0.14538376     0.09500
H125        H  0.88610099  0.28073675  0.07872396     0.14000
H126        H  0.79248155  0.20812939  0.14475907    -0.00300
H127        H  0.79570003  0.29441502  0.01811602     0.14300
H128        H  0.81324620  0.38082126  0.13049212     0.14100
C129        C  0.65304135  0.45832544  0.10866647     0.85900
C130        C  0.64012832  0.50168419  0.14177189    -0.54400
C131        C  0.66652354  0.04291099  0.15813796     0.08800
C132        C  0.70382988  0.02387392  0.14058480     0.19800
C133        C  0.67439471  0.48943254  0.07131197    -0.55100
C134        C  0.70071184  0.02771792  0.08917837     0.08900
C135        C  0.68158765  0.43009269  0.13364885    -0.54600
C136        C  0.70636427  0.46177983  0.15259642     0.09500
H137        H  0.61209594  0.50803802  0.15014253     0.14000
H138        H  0.72620232  0.04785877  0.15400717    -0.00300
H139        H  0.66789220  0.48694891  0.03670232     0.14300
H140        H  0.68052434  0.38728927  0.14055639     0.14100
C141        C  0.32286161  0.41440671  0.17172651     0.85900
C142        C  0.35422951  0.45140836  0.15613942    -0.54400
C143        C  0.34585499  0.99400360  0.13111629     0.08800
C144        C  0.30533911  0.00160229  0.12625991     0.19800
C145        C  0.29734587  0.45260163  0.19798488    -0.55100
C146        C  0.29071270  0.00072445  0.17497264     0.08900
C147        C  0.30351166  0.40218560  0.12992919    -0.54600
C148        C  0.29506642  0.44538688  0.10548261     0.09500
H149        H  0.38159498  0.44520014  0.16524138     0.14000
H150        H  0.29889137  0.03839039  0.10731920    -0.00300
H151        H  0.29014527  0.44689216  0.23287948     0.14300
H152        H  0.29739690  0.36218898  0.11825692     0.14100
O153        O  0.53678111  0.18955893  0.19417047    -0.72400
O154        O  0.46100761  0.28621910  0.20436508    -0.72600
O155        O  0.46422862  0.17791502  0.20184124    -0.72500
O156        O  0.53307640  0.29698292  0.19022621    -0.72500
O157        O  0.51608058  0.30497491  0.12269240    -0.72400
O158        O  0.47243066  0.16880552  0.13081424    -0.72400
O159        O  0.44828707  0.26943177  0.13618917    -0.72400
O160        O  0.54065614  0.20386937  0.12341145    -0.72600
V161        V  0.49867144  0.23775688  0.19701684     1.35200
V162        V  0.49439703  0.23677257  0.12918779     1.35200
C163        C  0.55440993  0.18505958  0.15807765     0.76900
C164        C  0.43939603  0.28966040  0.17383456     0.76900
C165        C  0.45700706  0.15275492  0.16613145     0.76800
C166        C  0.53609291  0.32052000  0.15251217     0.76700
O167        O  0.70544482  0.10303976  0.03839211    -0.72400
O168        O  0.74563636  0.18123636  0.44717225    -0.72600
O169        O  0.70967731  0.08428077  0.44870720    -0.72500
O170        O  0.74254351  0.20083804  0.03532709    -0.72500
O171        O  0.79108497  0.15739112  0.04614755    -0.72400
O172        O  0.75697804  0.04009489  0.46399677    -0.69200
O173        O  0.79417462  0.13891716  0.46031735    -0.72400
O174        O  0.75448506  0.06160207  0.05079515    -0.72600
V175        V  0.73007039  0.14574426  0.99348189     1.35200
V176        V  0.77690414  0.10455543  0.00412923     1.35200
C177        C  0.72135541  0.06637918  0.05902389     0.76900
C178        C  0.77892694  0.17641672  0.43977359     0.76900
C179        C  0.72776493  0.04184967  0.44439333     0.76800
C180        C  0.77237127  0.19867700  0.05345399     0.76700
O181        O  0.26654164  0.19872418  0.28819664    -0.72400
O182        O  0.29221689  0.09291205  0.19974458    -0.72600
O183        O  0.25642069  0.18908290  0.20205466    -0.72500
O184        O  0.30396124  0.10064285  0.28597924    -0.72500
O185        O  0.25358237  0.06269237  0.30637127    -0.72400
O186        O  0.20828209  0.14078409  0.21327517    -0.72400
O187        O  0.24579035  0.04444275  0.22017542    -0.72400
O188        O  0.21591586  0.15668880  0.29853875    -0.72600
V189        V  0.27898999  0.14441537  0.24446169     1.35200
V190        V  0.23180962  0.10187224  0.25910862     1.35200
C191        C  0.23508070  0.19778226  0.30544202     0.76900
C192        C  0.27502443  0.04847995  0.19807316     0.76900
C193        C  0.22375204  0.18161317  0.19471998     0.76800
C194        C  0.28719641  0.06588882  0.31027067     0.76700
O195        O  0.79646222  0.35983100  0.20678166    -0.72400
O196        O  0.74867229  0.44165958  0.29824023    -0.72600
O197        O  0.79155226  0.35515785  0.29546036    -0.72500
O198        O  0.75321391  0.44727960  0.20723175    -0.72500
O199        O  0.70866369  0.39081219  0.20642729    -0.72400
O200        O  0.74773513  0.29746128  0.29284114    -0.72400
O201        O  0.70443806  0.38446929  0.29483856    -0.72400
O202        O  0.75169545  0.30384235  0.20237078    -0.72600
V203        V  0.77171547  0.39968316  0.25186427     1.35200
V204        V  0.72886086  0.34555281  0.24909677     1.35200
C205        C  0.78229008  0.31923226  0.18802357     0.76900
C206        C  0.71870143  0.42488910  0.31366379     0.76900
C207        C  0.77673714  0.31148752  0.30984184     0.76800
C208        C  0.72382814  0.43370814  0.19093641     0.76700
C209        C  0.37430165  0.29209645  0.16303613    -0.26900
C210        C  0.40400282  0.31336127  0.18376436    -0.15000
C211        C  0.39821778  0.35157503  0.21819155     0.35600
C212        C  0.36447538  0.37502916  0.22485164    -0.26400
C213        C  0.33783526  0.36434376  0.19450410    -0.15600
C214        C  0.34063883  0.31450873  0.17123339     0.36700
N215        N  0.30958525  0.28481052  0.15862961    -0.89900
H216        H  0.37690772  0.25678124  0.14192439     0.17800
H217        H  0.36203013  0.40966156  0.24675607     0.17800
N218        N  0.42685040  0.36909747  0.24471286    -0.88900
H219        H  0.30937067  0.24801692  0.17558155     0.35200
H220        H  0.31247215  0.27558215  0.12485290     0.40300
H221        H  0.41927240  0.36053515  0.27765488     0.39900
H222        H  0.42976992  0.41100715  0.24118214     0.34800
C223        C  0.43075739  0.07852593  0.12177893    -0.26900
C224        C  0.42970835  0.10864832  0.16166507    -0.15000
C225        C  0.40001067  0.10137790  0.19117742     0.35600
C226        C  0.37231133  0.06517253  0.18006276    -0.26400
C227        C  0.37243588  0.03822936  0.13877828    -0.15600
C228        C  0.40266516  0.04381430  0.11032970     0.36700
N229        N  0.40539033  0.01282120  0.07027855    -0.89900
H230        H  0.45344027  0.08251054  0.09857961     0.17800
H231        H  0.35142100  0.05654245  0.20472878     0.17800
N232        N  0.39742386  0.13101735  0.23191835    -0.88900
H233        H  0.42092453  0.49592970  0.06391365     0.35200
H234        H  0.39714084  0.54430777  0.03937852     0.40300
H235        H  0.39482474  0.10321882  0.25797355     0.39900
H236        H  0.37410085  0.15359635  0.23195563     0.34800
C237        C  0.64460407  0.12536615  0.12300504    -0.26900
C238        C  0.65402136  0.09973846  0.16249085    -0.15000
C239        C  0.63498193  0.11353868  0.20170481     0.35600
C240        C  0.60348307  0.14335368  0.19965909    -0.26400
C241        C  0.59051550  0.16033706  0.15868662    -0.15600
C242        C  0.61296285  0.15428612  0.12045745     0.36700
N243        N  0.60352571  0.17400493  0.07805314    -0.89900
H244        H  0.65832360  0.11561274  0.09227937     0.17800
H245        H  0.58814947  0.15033690  0.23023999     0.17800
N246        N  0.64546119  0.09217563  0.24313113    -0.88900
H247        H  0.60043757  0.21583929  0.07979406     0.35200
H248        H  0.57934175  0.15583887  0.06985719     0.40300
H249        H  0.63067064  0.59827436  0.24799813     0.39900
H250        H  0.66018038  0.64973662  0.23938705     0.34800
C251        C  0.62529183  0.36406567  0.10408894    -0.26900
C252        C  0.62163087  0.41987629  0.09698322    -0.15000
C253        C  0.58617928  0.43899620  0.09797253     0.35600
C254        C  0.55847373  0.40747357  0.11875064    -0.26400
C255        C  0.56575003  0.35750067  0.13850536    -0.15600
C256        C  0.59965387  0.33526747  0.13007190     0.36700
N257        N  0.60786270  0.28314971  0.14747704    -0.89900
H258        H  0.65015558  0.34470230  0.09488248     0.17800
H259        H  0.53139416  0.42208730  0.12003692     0.17800
N260        N  0.57903634  0.49131891  0.08000202    -0.88900
H261        H  0.60693321  0.28622563  0.18204001     0.35200
H262        H  0.63398211  0.27257094  0.13819961     0.40300
H263        H  0.58086594  0.01336442  0.05658879     0.39900
H264        H  0.55183413  0.49956338  0.08342621     0.34800
C265        C  0.06224024  0.33437216  0.14452569    -0.26900
C266        C  0.06983409  0.38731977  0.12961784    -0.15000
C267        C  0.10285181  0.41067471  0.14031920     0.35600
C268        C  0.12921011  0.37886854  0.15854922    -0.26400
C269        C  0.12494190  0.32231048  0.16201544    -0.15600
C270        C  0.08928657  0.30222650  0.16171933     0.36700
N271        N  0.08072455  0.24912634  0.17832958    -0.89900
H272        H  0.03542135  0.31787531  0.14267867     0.17800
H273        H  0.15426392  0.39818151  0.16639723     0.17800
N274        N  0.10960788  0.46715946  0.13359369    -0.88900
H275        H  0.06233337  0.25317094  0.20500823     0.35200
H276        H  0.06802371  0.22720418  0.15370002     0.40300
H277        H  0.13214274  0.47162149  0.11232765     0.39900
H278        H  0.11563427  0.48410326  0.16417927     0.34800
C279        C  0.10880270  0.09274233  0.07529113    -0.26900
C280        C  0.09090699  0.08544556  0.11714702    -0.15000
C281        C  0.10757476  0.10420943  0.15492756     0.35600
C282        C  0.13927896  0.13490663  0.14987766    -0.26400
C283        C  0.15391409  0.14983376  0.10737720    -0.15600
C284        C  0.13988262  0.12460692  0.07002736     0.36700
N285        N  0.15455823  0.13453719  0.02600706    -0.89900
H286        H  0.09757965  0.07594224  0.04566012     0.17800
H287        H  0.14883063  0.15389567  0.17932191     0.17800
N288        N  0.09116853  0.09599816  0.19810413    -0.88900
H289        H  0.16222894  0.09728039  0.01264405     0.35200
H290        H  0.17787126  0.15811927  0.02694864     0.40300
H291        H  0.08635232  0.13387771  0.21233884     0.39900
H292        H  0.10931127  0.07612440  0.21754455     0.34800
C293        C  0.87156518  0.15371470  0.08236285    -0.26900
C294        C  0.86821717  0.19005704  0.11803208    -0.15000
C295        C  0.89512224  0.19081402  0.14942373     0.35600
C296        C  0.92399493  0.15534012  0.14478800    -0.26400
C297        C  0.92762282  0.11981767  0.10827086    -0.15600
C298        C  0.90031901  0.11811745  0.07788929     0.36700
N299        N  0.90173577  0.08061500  0.04197079    -0.89900
H300        H  0.85321581  0.15523049  0.05590895     0.17800
H301        H  0.94423104  0.15660522  0.16939616     0.17800
N302        N  0.89463052  0.22916386  0.18503523    -0.88900
H303        H  0.90114877  0.10358613  0.01329238     0.35200
H304        H  0.87853840  0.05658000  0.04396759     0.40300
H305        H  0.87022768  0.22508853  0.20271640     0.39900
H306        H  0.89604940  0.26807191  0.17152804     0.34800
C307        C  0.88008624  0.35564736  0.02389013    -0.26900
C308        C  0.84866665  0.36828109  0.04821309    -0.15000
C309        C  0.84781573  0.42112010  0.06624684     0.35600
C310        C  0.87955537  0.44332940  0.08181109    -0.26400
C311        C  0.91219194  0.41911428  0.07031130    -0.15600
C312        C  0.91251311  0.37864981  0.03692214     0.36700
N313        N  0.94540716  0.35825152  0.01852911    -0.89900
H314        H  0.88083469  0.31948969  0.00359914     0.17800
H315        H  0.87880340  0.47986036  0.10165204     0.17800
N316        N  0.81498026  0.44951652  0.07321996    -0.88900
H317        H  0.94556943  0.36366114  0.98418016     0.35200
H318        H  0.94599591  0.31671797  0.02484150     0.40300
H319        H  0.79410739  0.42713498  0.05982219     0.39900
H320        H  0.81724318  0.48546105  0.05506117     0.34800
C321        C  0.41857021  0.38575078  0.43307895    -0.26900
C322        C  0.44359215  0.37327978  0.39976729    -0.15000
C323        C  0.44344128  0.40300376  0.35926109     0.35600
C324        C  0.41452318  0.43756634  0.35055369    -0.26400
C325        C  0.38745845  0.44614175  0.38300882    -0.15600
C326        C  0.39160047  0.42236357  0.42590748     0.36700
N327        N  0.36739679  0.43402163  0.46259883    -0.89900
H328        H  0.41907909  0.36566654  0.46494320     0.17800
H329        H  0.41329925  0.45778187  0.31887610     0.17800
N330        N  0.47279402  0.39853827  0.32747827    -0.88900
H331        H  0.35581238  0.39765496  0.47404169     0.35200
H332        H  0.38209534  0.45059442  0.48814196     0.40300
H333        H  0.49575900  0.41186949  0.34297780     0.39900
H334        H  0.46969340  0.42512087  0.30108544     0.34800
C335        C  0.37855023  0.17077034  0.38546988    -0.26900
C336        C  0.40397975  0.16466596  0.41788414    -0.15000
C337        C  0.39218027  0.14026295  0.45888009     0.35600
C338        C  0.35798690  0.11640525  0.46361913    -0.26400
C339        C  0.33665124  0.11056495  0.42685754    -0.15600
C340        C  0.34417728  0.14642905  0.39112655     0.36700
N341        N  0.31686656  0.15785250  0.36098065    -0.89900
H342        H  0.38525398  0.19464073  0.35615825     0.17800
H343        H  0.35163173  0.09225417  0.49289199     0.17800
N344        N  0.41553681  0.13601288  0.49509113    -0.88900
H345        H  0.32619554  0.18613600  0.33736096     0.35200
H346        H  0.29597427  0.17608132  0.37908320     0.40300
H347        H  0.41975852  0.09507799  0.50110001     0.39900
H348        H  0.40299211  0.15287362  0.52328916     0.34800
C349        C  0.56900706  0.07662237  0.37239359    -0.26900
C350        C  0.56836349  0.11297632  0.40853055    -0.15000
C351        C  0.59821834  0.11516126  0.43552038     0.35600
C352        C  0.62666732  0.07949715  0.42736879    -0.26400
C353        C  0.62742705  0.04343155  0.39134363    -0.15600
C354        C  0.59760603  0.04135092  0.36430038     0.36700
N355        N  0.59481803  0.00150655  0.33005724    -0.89900
H356        H  0.54666280  0.07467689  0.35077284     0.17800
H357        H  0.64720531  0.07770323  0.45113979     0.17800
N358        N  0.59989931  0.15382682  0.47092349    -0.88900
H359        H  0.61105503  0.48639682  0.32011757     0.35200
H360        H  0.63927990  0.53812587  0.30652207     0.40300
H361        H  0.60063130  0.19235445  0.45679119     0.39900
H362        H  0.62372954  0.15022363  0.48739705     0.34800
C363        C  0.62651943  0.29032619  0.41725479    -0.26900
C364        C  0.59449373  0.31302497  0.43315456    -0.15000
C365        C  0.59618205  0.35081220  0.46876217     0.35600
C366        C  0.62935886  0.37188732  0.48111385    -0.26400
C367        C  0.65935278  0.36216327  0.45336824    -0.15600
C368        C  0.65910863  0.31128704  0.43162270     0.36700
N369        N  0.69129585  0.28186590  0.42291830    -0.89900
H370        H  0.62616149  0.25491180  0.39610462     0.17800
H371        H  0.62963396  0.40622116  0.50343264     0.17800
N372        N  0.56431605  0.37084615  0.49030063    -0.88900
H373        H  0.68837825  0.24492639  0.43956806     0.35200
H374        H  0.71268336  0.30227749  0.43704354     0.40300
H375        H  0.56412878  0.41285757  0.48647236     0.39900
H376        H  0.56526292  0.36235572  0.52413055     0.34800
C377        C  0.12897164  0.35398858  0.27673639    -0.26900
C378        C  0.15936238  0.36716931  0.30062684    -0.15000
C379        C  0.16028982  0.42037367  0.31790592     0.35600
C380        C  0.12803255  0.44554268  0.33040963    -0.26400
C381        C  0.09542417  0.42240313  0.31847230    -0.15600
C382        C  0.09639039  0.37894891  0.28787228     0.36700
N383        N  0.06411690  0.35773098  0.27040517    -0.89900
H384        H  0.12830108  0.31670105  0.25793691     0.17800
H385        H  0.12858536  0.48331057  0.34846939     0.17800
N386        N  0.19368767  0.44838064  0.32246194    -0.88900
H387        H  0.06188118  0.31669738  0.27853876     0.35200
H388        H  0.06619249  0.36118487  0.23595135     0.40300
H389        H  0.19390159  0.48197692  0.30146180     0.39900
H390        H  0.19483373  0.46328855  0.35480721     0.34800
C391        C  0.11061819  0.10824992  0.33932069    -0.26900
C392        C  0.07530284  0.12580318  0.34405981    -0.15000
C393        C  0.06826367  0.17321582  0.36867867     0.35600
C394        C  0.09681835  0.20518129  0.38303956    -0.26400
C395        C  0.13250786  0.19077667  0.37352291    -0.15600
C396        C  0.13896127  0.13864759  0.35667025     0.36700
N397        N  0.17357652  0.11565261  0.35939887    -0.89900
H398        H  0.11572569  0.06898672  0.32484082     0.17800
H399        H  0.09133524  0.24400429  0.39833868     0.17800
N400        N  0.03206228  0.18851694  0.37908051    -0.88900
H401        H  0.17374828  0.07648117  0.34632089     0.35200
H402        H  0.17892991  0.11212473  0.39298133     0.40300
H403        H  0.02011449  0.19697016  0.34921852     0.39900
H404        H  0.03140281  0.22412065  0.39777935     0.34800
C405        C  0.89886938  0.09748158  0.30420154    -0.26900
C406        C  0.91380476  0.08537421  0.34527003    -0.15000
C407        C  0.89430450  0.09883150  0.38412978     0.35600
C408        C  0.86238211  0.12746761  0.38175463    -0.26400
C409        C  0.85017856  0.14660749  0.34096785    -0.15600
C410        C  0.86739050  0.12780459  0.30179115     0.36700
N411        N  0.85442380  0.14350629  0.25967292    -0.89900
H412        H  0.91257133  0.08533873  0.27362589     0.17800
H413        H  0.85046269  0.14159397  0.41256177     0.17800
N414        N  0.90770339  0.08598202  0.42636440    -0.88900
H415        H  0.87001639  0.12671300  0.23385478     0.35200
H416        H  0.82879522  0.12681616  0.25733332     0.40300
H417        H  0.88862692  0.06119749  0.44270701     0.39900
H418        H  0.91054962  0.12199321  0.44415333     0.34800
C419        C  0.94339062  0.33179384  0.37752855    -0.26900
C420        C  0.93593799  0.38614879  0.36919417    -0.15000
C421        C  0.90367237  0.40681546  0.38692874     0.35600
C422        C  0.87700696  0.37156308  0.40411246    -0.26400
C423        C  0.88106708  0.31520063  0.40147962    -0.15600
C424        C  0.91651717  0.29663597  0.39527189     0.36700
N425        N  0.92507230  0.24228906  0.40682749    -0.89900
H426        H  0.97001023  0.31677611  0.37065767     0.17800
H427        H  0.85189212  0.38833539  0.41594009     0.17800
N428        N  0.89816644  0.46385854  0.38854667    -0.88900
H429        H  0.94366868  0.24427476  0.43166727     0.35200
H430        H  0.93760242  0.22388811  0.37930108     0.40300
H431        H  0.89336183  0.47425449  0.42177679     0.39900
H432        H  0.87524729  0.47226427  0.37139203     0.34800
O433        O  0.04752592  0.07465227  0.80589611    -0.72400
O434        O  0.97858339  0.44941256  0.81784008    -0.72600
O435        O  0.97514247  0.06698757  0.81335328    -0.72500
O436        O  0.05048542  0.45743072  0.80313042    -0.72500
O437        O  0.06416969  0.47280963  0.87116791    -0.72400
O438        O  0.97068543  0.05196180  0.88405600    -0.72400
O439        O  0.99522187  0.44019231  0.88545146    -0.72400
O440        O  0.03991586  0.08358569  0.87703386    -0.72600
V441        V  0.01184528  0.01693932  0.81019587     1.35200
V442        V  0.01850341  0.50751705  0.87900504     1.35200
C443        C  0.05589835  0.09840862  0.84179140     0.76900
C444        C  0.97506713  0.42571031  0.85538201     0.76900
C445        C  0.95735962  0.07143109  0.84919141     0.76800
C446        C  0.07253610  0.45327495  0.83304248     0.76700
C447        C  0.19106898  0.33528824  0.82536516     0.85900
C448        C  0.21124913  0.34904618  0.86634670    -0.54400
C449        C  0.21968549  0.30652746  0.89174611     0.08800
C450        C  0.21016242  0.25076231  0.87116176     0.19800
C451        C  0.21641717  0.29668153  0.79910572    -0.55100
C452        C  0.22678297  0.25224924  0.82320792     0.08900
C453        C  0.16023302  0.29839063  0.84291504    -0.54600
C454        C  0.16979102  0.25352377  0.86446546     0.09500
H455        H  0.21685611  0.38959012  0.87733542     0.14000
H456        H  0.21784182  0.21547976  0.89119028    -0.00300
H457        H  0.22263396  0.30124170  0.76385519     0.14300
H458        H  0.13254106  0.30386125  0.83500308     0.14100
C459        C  0.85356010  0.28985019  0.88615947     0.85900
C460        C  0.82466148  0.31899659  0.86206438    -0.54400
C461        C  0.79913621  0.28738364  0.84410311     0.08800
C462        C  0.80314247  0.22570865  0.85713810     0.19800
C463        C  0.83305649  0.25726472  0.92318751    -0.55100
C464        C  0.80603190  0.22400114  0.90848611     0.08900
C465        C  0.86617841  0.24817759  0.85170492    -0.54600
C466        C  0.84154525  0.21036713  0.84042307     0.09500
H467        H  0.82610055  0.36175615  0.85473408     0.14000
H468        H  0.78216707  0.19861105  0.84407390    -0.00300
H469        H  0.84003377  0.25910376  0.95769928     0.14300
H470        H  0.89421803  0.24274095  0.84262715     0.14100
C471        C  0.67798903  0.42388202  0.92916143     0.85900
C472        C  0.69280377  0.40690866  0.88392614    -0.54400
C473        C  0.70413605  0.44709620  0.85632987     0.08800
C474        C  0.70139114  0.00391824  0.87692864     0.19800
C475        C  0.70781654  0.45933963  0.94833387    -0.55100
C476        C  0.71761930  0.00238973  0.92355187     0.08900
C477        C  0.64869603  0.46410999  0.91820248    -0.54600
C478        C  0.66039677  0.00224563  0.88795998     0.09500
H479        H  0.69442395  0.36519075  0.87332042     0.14000
H480        H  0.71031005  0.03909302  0.85628803    -0.00300
H481        H  0.71650521  0.45426576  0.98193745     0.14300
H482        H  0.62135266  0.46139766  0.93120006     0.14100
O483        O  0.46530559  0.19826504  0.94460680    -0.72400
O484        O  0.54350971  0.28958121  0.95442654    -0.72600
O485        O  0.47456832  0.30618035  0.94128059    -0.72500
O486        O  0.53689721  0.18257385  0.95032128    -0.72500
O487        O  0.53297308  0.17445586  0.87928594    -0.72400
O488        O  0.49343178  0.31237377  0.87272500    -0.72400
O489        O  0.55989876  0.27555428  0.88573192    -0.72400
O490        O  0.46476275  0.21229444  0.87402877    -0.72600
V491        V  0.50503699  0.24387984  0.94669920     1.35200
V492        V  0.51268410  0.24339674  0.87872832     1.35200
C493        C  0.44848233  0.19557053  0.90970725     0.76900
C494        C  0.56671735  0.29479980  0.92394720     0.76900
C495        C  0.47453997  0.33118664  0.90404712     0.76800
C496        C  0.54641348  0.15839489  0.91430668     0.76700
C497        C  0.36104405  0.48462504  0.87062543     0.85900
C498        C  0.33097263  0.44815854  0.88690698    -0.54400
C499        C  0.30121022  0.47224385  0.90282591     0.08800
C500        C  0.30137321  0.03814918  0.88970997     0.19800
C501        C  0.34451282  0.51067508  0.82886474    -0.55100
C502        C  0.31228559  0.03928638  0.83898725     0.08900
C503        C  0.36377789  0.53250577  0.90180140    -0.54600
C504        C  0.33446680  0.06507542  0.91051409     0.09500
H505        H  0.33537533  0.40496326  0.89046555     0.14000
H506        H  0.27605269  0.05880089  0.89868812    -0.00300
H507        H  0.35683041  0.50887053  0.79580964     0.14300
H508        H  0.38998035  0.54832496  0.90994313     0.14100
O509        O  0.29173046  0.38625961  0.54006331    -0.72400
O510        O  0.25794360  0.30585269  0.95339813    -0.72600
O511        O  0.29704686  0.39674326  0.95226173    -0.72500
O512        O  0.25044293  0.29605901  0.54406336    -0.72500
O513        O  0.20331788  0.34552585  0.54622758    -0.72400
O514        O  0.25265243  0.45127662  0.95850563    -0.72400
O515        O  0.21272786  0.35967526  0.95572078    -0.72400
O516        O  0.24452453  0.43489624  0.55084848    -0.72600
V517        V  0.27764637  0.35126907  0.99766687     1.35200
V518        V  0.23290725  0.39991601  0.00179284     1.35200
C519        C  0.27518149  0.42207950  0.56244121     0.76900
C520        C  0.22946451  0.32116628  0.93703901     0.76900
C521        C  0.28215870  0.43963926  0.93943560     0.76800
C522        C  0.22027639  0.30611249  0.56207457     0.76700
O523        O  0.00565107  0.42615499  0.63956365    -0.72400
O524        O  0.96085340  0.06285264  0.63634169    -0.72600
O525        O  0.93751187  0.45289047  0.61989351    -0.72500
O526        O  0.02955679  0.03551107  0.64787254    -0.72500
O527        O  0.02983658  0.05228449  0.57751463    -0.72400
O528        O  0.95963167  0.43691263  0.55380506    -0.72400
O529        O  0.95954465  0.05067922  0.56526934    -0.72400
O530        O  0.02979156  0.43724753  0.57363543    -0.72600
V531        V  0.98457603  0.99696898  0.63917414     1.35200
V532        V  0.99651139  0.99736717  0.57235420     1.35200
C533        C  0.02980105  0.41394794  0.61150279     0.76900
C534        C  0.94823660  0.07588006  0.60006452     0.76900
C535        C  0.93394771  0.43247465  0.58139184     0.76800
C536        C  0.04485747  0.05750210  0.61345204     0.76700
C537        C  0.14946852  0.28256843  0.64899332     0.85900
C538        C  0.13701545  0.24160060  0.61437035    -0.54400
C539        C  0.16083686  0.20354937  0.60165911     0.08800
C540        C  0.19876924  0.21761229  0.61638675     0.19800
C541        C  0.16726523  0.24755508  0.68484210    -0.55100
C542        C  0.19410749  0.21410217  0.66795040     0.08900
C543        C  0.18125341  0.31112219  0.62590657    -0.54600
C544        C  0.20501197  0.27926072  0.60402824     0.09500
H545        H  0.10925238  0.23680786  0.60606969     0.14000
H546        H  0.21950239  0.19062291  0.60185787    -0.00300
H547        H  0.15954703  0.24904919  0.71983121     0.14300
H548        H  0.18305807  0.35427234  0.62097232     0.14100
C549        C  0.81952733  0.31537404  0.57018689     0.85900
C550        C  0.84728273  0.27329767  0.58249696    -0.54400
C551        C  0.83508338  0.23216474  0.60856927     0.08800
C552        C  0.79482246  0.23693692  0.62227263     0.19800
C553        C  0.78912930  0.28190820  0.55046302    -0.55100
C554        C  0.77644660  0.23961262  0.57668523     0.08900
C555        C  0.80447586  0.33416630  0.61488622    -0.54600
C556        C  0.79154207  0.29538725  0.64277065     0.09500
H557        H  0.87493341  0.27407190  0.57051438     0.14000
H558        H  0.78438855  0.20393530  0.64431495    -0.00300
H559        H  0.78195709  0.28655484  0.51617789     0.14300
H560        H  0.80409197  0.37608802  0.62502056     0.14100
C561        C  0.64240209  0.46048384  0.61496553     0.85900
C562        C  0.63071217  0.50237364  0.64983581    -0.54400
C563        C  0.66215279  0.03779573  0.66086877     0.08800
C564        C  0.69949101  0.02193958  0.64079649     0.19800
C565        C  0.66310147  0.49288106  0.57801185    -0.55100
C566        C  0.69204352  0.02047164  0.59033686     0.08900
C567        C  0.67085719  0.42987659  0.63857762    -0.54600
C568        C  0.69714623  0.45997633  0.65632514     0.09500
H569        H  0.60299324  0.50860410  0.65991323     0.14000
H570        H  0.72116704  0.05053510  0.64966547    -0.00300
H571        H  0.65593634  0.49155700  0.54353441     0.14300
H572        H  0.66840315  0.38705595  0.64562218     0.14100
C573        C  0.31265729  0.40258630  0.67495469     0.85900
C574        C  0.34428593  0.44061103  0.66233789    -0.54400
C575        C  0.33549779  0.98566761  0.64166363     0.08800
C576        C  0.29573930  0.98983471  0.63085258     0.19800
C577        C  0.28557084  0.43992289  0.70007342    -0.55100
C578        C  0.27681407  0.98922789  0.67741418     0.08900
C579        C  0.29572894  0.39118309  0.63120586    -0.54600
C580        C  0.28795747  0.43485545  0.60700473     0.09500
H581        H  0.37124691  0.43484332  0.67305756     0.14000
H582        H  0.28982458  0.02557808  0.61033427    -0.00300
H583        H  0.27756506  0.43385666  0.73469389     0.14300
H584        H  0.29059308  0.35132753  0.61838619     0.14100
O585        O  0.52882433  0.18473092  0.68486814    -0.72400
O586        O  0.45180841  0.27834477  0.69879396    -0.72600
O587        O  0.45683059  0.17075980  0.69571482    -0.72500
O588        O  0.52317926  0.29175602  0.68175828    -0.72500
O589        O  0.50577129  0.29864489  0.61426804    -0.72400
O590        O  0.46162726  0.16241197  0.62429650    -0.72400
O591        O  0.43766592  0.26303776  0.63093031    -0.72400
O592        O  0.53011132  0.19695603  0.61378937    -0.72600
V593        V  0.49006634  0.23146157  0.68940770     1.35200
V594        V  0.48387874  0.23037409  0.62174074     1.35200
C595        C  0.54511808  0.17908693  0.64801752     0.76900
C596        C  0.42930190  0.28178608  0.66933838     0.76900
C597        C  0.44789787  0.14605670  0.66054833     0.76800
C598        C  0.52560929  0.31510955  0.64404094     0.76700
O599        O  0.69551867  0.09332428  0.53591173    -0.72400
O600        O  0.75274781  0.18960843  0.94758493    -0.72600
O601        O  0.71591051  0.09309942  0.95106189    -0.72500
O602        O  0.73201119  0.19245885  0.53448755    -0.72500
O603        O  0.78049184  0.15020818  0.54752544    -0.72400
O604        O  0.76380575  0.04858095  0.96334715    -0.69200
O605        O  0.80155951  0.14686132  0.95844312    -0.72400
O606        O  0.74480650  0.05388155  0.55068000    -0.72600
V607        V  0.72155589  0.13692516  0.49200954     1.35200
V608        V  0.76826853  0.09672904  0.50506129     1.35200
C609        C  0.71143885  0.05733170  0.55742686     0.76900
C610        C  0.78580056  0.18465778  0.93884250     0.76900
C611        C  0.73384473  0.05060033  0.94546702     0.76800
C612        C  0.76142609  0.19128911  0.55367632     0.76700
O613        O  0.26805078  0.20178795  0.77539644    -0.72400
O614        O  0.28430018  0.08209540  0.69684519    -0.72600
O615        O  0.24909397  0.17820504  0.69386105    -0.72500
O616        O  0.30464533  0.10316382  0.77837666    -0.72500
O617        O  0.25680285  0.06404890  0.80610870    -0.72400
O618        O  0.20092774  0.14116778  0.72228375    -0.72400
O619        O  0.23660309  0.04172910  0.72413603    -0.72400
O620        O  0.22181011  0.15933021  0.80421000    -0.72600
V621        V  0.27570734  0.14047209  0.73687642     1.35200
V622        V  0.22987757  0.10219444  0.76327307     1.35200
C623        C  0.24032554  0.20225636  0.80091735     0.76900
C624        C  0.26463121  0.04009791  0.69937252     0.76900
C625        C  0.21540170  0.17582947  0.69568687     0.76800
C626        C  0.29049300  0.06950221  0.80593978     0.76700
O627        O  0.79146075  0.35922602  0.70178646    -0.72400
O628        O  0.74877040  0.44291477  0.79583228    -0.72600
O629        O  0.79288391  0.35738508  0.79032074    -0.72500
O630        O  0.74729301  0.44592451  0.70562784    -0.72500
O631        O  0.70420611  0.38667011  0.70736373    -0.72400
O632        O  0.74860263  0.30025747  0.79495880    -0.72400
O633        O  0.70401436  0.38634494  0.79584375    -0.72400
O634        O  0.74796410  0.30041192  0.70449280    -0.72600
V635        V  0.76939648  0.39997089  0.74838030     1.35200
V636        V  0.72693683  0.34478514  0.75065288     1.35200
C637        C  0.77701506  0.31668964  0.68623699     0.76900
C638        C  0.71891913  0.42758228  0.81264060     0.76900
C639        C  0.77901192  0.31480012  0.80787758     0.76800
C640        C  0.71744911  0.43075672  0.69152553     0.76700
C641        C  0.36341114  0.28194105  0.66223153    -0.26900
C642        C  0.39360730  0.30358424  0.68175021    -0.15000
C643        C  0.38822211  0.33967996  0.71793888     0.35600
C644        C  0.35408692  0.36090049  0.72752513    -0.26400
C645        C  0.32690070  0.35163930  0.69762498    -0.15600
C646        C  0.32961929  0.30269473  0.67325766     0.36700
N647        N  0.29842192  0.27239694  0.66230970    -0.89900
H648        H  0.36578570  0.24754783  0.64008596     0.17800
H649        H  0.35174745  0.39419425  0.75080248     0.17800
N650        N  0.41759832  0.35809044  0.74290667    -0.88900
H651        H  0.30019609  0.23528081  0.67835675     0.35200
H652        H  0.29981674  0.26403151  0.62831767     0.40300
H653        H  0.41177587  0.34868925  0.77618912     0.39900
H654        H  0.41943306  0.40015280  0.73983349     0.34800
C655        C  0.41609351  0.07528630  0.61775274    -0.26900
C656        C  0.42005910  0.10247006  0.65859492    -0.15000
C657        C  0.39462776  0.09224196  0.69329036     0.35600
C658        C  0.36580987  0.05644958  0.68625874    -0.26400
C659        C  0.36146943  0.03113586  0.64488833    -0.15600
C660        C  0.38742336  0.03954629  0.61103843     0.36700
N661        N  0.38536061  0.01005122  0.57036639    -0.89900
H662        H  0.43539820  0.08170733  0.59053658     0.17800
H663        H  0.34735563  0.04692632  0.71373749     0.17800
N664        N  0.39771410  0.11810013  0.73545694    -0.88900
H665        H  0.40426219  0.50696744  0.55971629     0.35200
H666        H  0.37573524  0.55651942  0.54714246     0.40300
H667        H  0.39902816  0.08802839  0.75962805     0.39900
H668        H  0.37453671  0.14006767  0.74210821     0.34800
C669        C  0.62957256  0.10280700  0.61318415    -0.26900
C670        C  0.64434451  0.09165634  0.65477147    -0.15000
C671        C  0.62957432  0.11850923  0.69198189     0.35600
C672        C  0.59864578  0.14954255  0.68818932    -0.26400
C673        C  0.58116564  0.15381117  0.64768565    -0.15600
C674        C  0.59820434  0.13224588  0.60945197     0.36700
N675        N  0.58303465  0.13580997  0.56684602    -0.89900
H676        H  0.63913742  0.08293175  0.58353548     0.17800
H677        H  0.58718467  0.16791439  0.71796268     0.17800
N678        N  0.64443828  0.11127527  0.73442049    -0.88900
H679        H  0.58072870  0.17660685  0.55867239     0.35200
H680        H  0.55766926  0.11766170  0.56850379     0.40300
H681        H  0.61479199  0.57326305  0.76047374     0.39900
H682        H  0.64266466  0.62723398  0.76352940     0.34800
C683        C  0.61514323  0.36749298  0.60129761    -0.26900
C684        C  0.61077828  0.42384279  0.60162337    -0.15000
C685        C  0.57518328  0.44257271  0.60439880     0.35600
C686        C  0.54735342  0.40729912  0.61986090    -0.26400
C687        C  0.55457402  0.35355134  0.63093682    -0.15600
C688        C  0.58821499  0.33294767  0.61851797     0.36700
N689        N  0.59527760  0.27666910  0.62342284    -0.89900
H690        H  0.64072822  0.35036167  0.59195198     0.17800
H691        H  0.52033405  0.42181736  0.62384900     0.17800
N692        N  0.56785412  0.49754154  0.59289816    -0.88900
H693        H  0.61662554  0.27290481  0.64435973     0.35200
H694        H  0.60322422  0.26144349  0.59232032     0.40300
H695        H  0.57040030  0.95512356  0.54709736     0.39900
H696        H  0.54054840  0.50490248  0.59665004     0.34800
C697        C  0.05368485  0.33003816  0.64726735    -0.26900
C698        C  0.05982521  0.38069363  0.62668953    -0.15000
C699        C  0.09351123  0.40531579  0.63107877     0.35600
C700        C  0.12114154  0.37686838  0.65009829    -0.26400
C701        C  0.11771484  0.32110831  0.66006920    -0.15600
C702        C  0.08221109  0.30039353  0.66424746     0.36700
N703        N  0.07545196  0.24820549  0.68365367    -0.89900
H704        H  0.02693213  0.31286841  0.64923457     0.17800
H705        H  0.14566345  0.39889293  0.65533798     0.17800
N706        N  0.09962579  0.46019536  0.61746435    -0.88900
H707        H  0.05790328  0.25312866  0.71107389     0.35200
H708        H  0.06253193  0.22390018  0.66070265     0.40300
H709        H  0.12057352  0.46095118  0.59356646     0.39900
H710        H  0.10786806  0.48209544  0.64494909     0.34800
C711        C  0.09428179  0.10213585  0.56884227    -0.26900
C712        C  0.08020792  0.08578291  0.61100633    -0.15000
C713        C  0.10057645  0.09548328  0.64784859     0.35600
C714        C  0.13245197  0.12610339  0.64305193    -0.26400
C715        C  0.14403982  0.14852184  0.60154892    -0.15600
C716        C  0.12577744  0.13280652  0.56370973     0.36700
N717        N  0.13645129  0.15194571  0.52012088    -0.89900
H718        H  0.08000401  0.09312342  0.53917439     0.17800
H719        H  0.14541038  0.13760877  0.67290079     0.17800
N720        N  0.08775831  0.07713166  0.69042988    -0.88900
H721        H  0.14126835  0.11804893  0.50017706     0.35200
H722        H  0.16068597  0.17328903  0.52063649     0.40300
H723        H  0.08247835  0.11131271  0.70974210     0.39900
H724        H  0.10768058  0.05432689  0.70429700     0.34800
C725        C  0.86065691  0.14602348  0.58068957    -0.26900
C726        C  0.85962912  0.18594945  0.61380688    -0.15000
C727        C  0.88936734  0.19119391  0.64086447     0.35600
C728        C  0.91826805  0.15599470  0.63505341    -0.26400
C729        C  0.91911553  0.11620841  0.60145292    -0.15600
C730        C  0.88946812  0.11084873  0.57487306     0.36700
N731        N  0.88833875  0.06996424  0.54153600    -0.89900
H732        H  0.84049213  0.14430774  0.55659950     0.17800
H733        H  0.94056805  0.16043878  0.65655733     0.17800
N734        N  0.89154544  0.23351920  0.67314667    -0.88900
H735        H  0.88483063  0.08983728  0.51172121     0.35200
H736        H  0.86545988  0.04622527  0.54793574     0.40300
H737        H  0.86897526  0.23070555  0.69450311     0.39900
H738        H  0.89108680  0.27076199  0.65687476     0.34800
C739        C  0.86761918  0.34889019  0.51714504    -0.26900
C740        C  0.83625018  0.36162809  0.54147783    -0.15000
C741        C  0.83607169  0.41447546  0.55951010     0.35600
C742        C  0.86783872  0.43471010  0.57665177    -0.26400
C743        C  0.90021531  0.40941203  0.56552676    -0.15600
C744        C  0.90024953  0.36976327  0.53149818     0.36700
N745        N  0.93294766  0.34799908  0.51372340    -0.89900
H746        H  0.86812909  0.31310323  0.49654160     0.17800
H747        H  0.86736505  0.47068998  0.59715574     0.17800
N748        N  0.80358514  0.44375277  0.56642259    -0.88900
H749        H  0.93398329  0.35442883  0.47947982     0.35200
H750        H  0.93242191  0.30626064  0.51927201     0.40300
H751        H  0.78255481  0.42218612  0.55257662     0.39900
H752        H  0.80646219  0.47993953  0.54867933     0.34800
C753        C  0.42840556  0.39601444  0.92929193    -0.26900
C754        C  0.45109201  0.37822183  0.89518111    -0.15000
C755        C  0.44844450  0.40219630  0.85227698     0.35600
C756        C  0.41991776  0.43754118  0.84361638    -0.26400
C757        C  0.39521323  0.45159395  0.87744278    -0.15600
C758        C  0.40136435  0.43233318  0.92144909     0.36700
N759        N  0.37886990  0.44791608  0.95874662    -0.89900
H760        H  0.43067310  0.38012073  0.96249644     0.17800
H761        H  0.41682474  0.45350460  0.81065087     0.17800
N762        N  0.47450459  0.39045385  0.81756462    -0.88900
H763        H  0.36744398  0.41301132  0.97320853     0.35200
H764        H  0.39486685  0.46656461  0.98204046     0.40300
H765        H  0.49913326  0.40509625  0.82782759     0.39900
H766        H  0.46931119  0.41204020  0.78886717     0.34800
C767        C  0.38834624  0.17749583  0.87724285    -0.26900
C768        C  0.41045679  0.17565161  0.91346039    -0.15000
C769        C  0.39463346  0.15825267  0.95497060     0.35600
C770        C  0.36047183  0.13388746  0.95689707    -0.26400
C771        C  0.34236483  0.12382218  0.91799184    -0.15600
C772        C  0.35347357  0.15495282  0.88041800     0.36700
N773        N  0.32976170  0.16173238  0.84509396    -0.89900
H774        H  0.39811458  0.19632778  0.84663185     0.17800
H775        H  0.35140662  0.11376024  0.98729220     0.17800
N776        N  0.41353051  0.16272307  0.99516355    -0.88900
H777        H  0.34168232  0.18587255  0.82004214     0.35200
H778        H  0.30767873  0.18276969  0.85780778     0.40300
H779        H  0.41629442  0.12397878  0.00816906     0.39900
H780        H  0.39812330  0.18524930  0.01789794     0.34800
C781        C  0.57752536  0.08506979  0.87065500    -0.26900
C782        C  0.57499669  0.11644329  0.90983857    -0.15000
C783        C  0.60281751  0.11258040  0.93961092     0.35600
C784        C  0.63204078  0.07863385  0.92990920    -0.26400
C785        C  0.63483189  0.04824278  0.89045331    -0.15600
C786        C  0.60635480  0.05051487  0.86140247     0.36700
N787        N  0.60532072  0.01616278  0.82322261    -0.89900
H788        H  0.55658583  0.08678059  0.84703530     0.17800
H789        H  0.65153390  0.07351044  0.95487736     0.17800
N790        N  0.60157041  0.14249810  0.98008361    -0.88900
H791        H  0.59922742  0.46530119  0.85133804     0.35200
H792        H  0.61929042  0.50493904  0.81201363     0.40300
H793        H  0.62431729  0.16745050  0.98048246     0.39900
H794        H  0.60303698  0.11444050  0.00577648     0.34800
C795        C  0.63340254  0.29835638  0.92481671    -0.26900
C796        C  0.60040207  0.32128360  0.93637309    -0.15000
C797        C  0.59964706  0.36270836  0.96906672     0.35600
C798        C  0.63171443  0.38612565  0.98262138    -0.26400
C799        C  0.66304277  0.37589723  0.95747123    -0.15600
C800        C  0.66489333  0.32297491  0.93939477     0.36700
N801        N  0.69838348  0.29667744  0.93172454    -0.89900
H802        H  0.63463565  0.26100435  0.90606796     0.17800
H803        H  0.63024537  0.42215593  0.00290267     0.17800
N804        N  0.56648719  0.38351145  0.98640646    -0.88900
H805        H  0.69737359  0.26100834  0.95029951     0.35200
H806        H  0.71888059  0.32059443  0.94431874     0.40300
H807        H  0.56594988  0.42491733  0.97955715     0.39900
H808        H  0.56564583  0.37854279  0.02080104     0.34800
C809        C  0.14643717  0.37234034  0.77476573    -0.26900
C810        C  0.17489845  0.38442957  0.80228143    -0.15000
C811        C  0.17237065  0.43434310  0.82532685     0.35600
C812        C  0.13862111  0.45448303  0.83758004    -0.26400
C813        C  0.10791808  0.43046691  0.82098967    -0.15600
C814        C  0.11224497  0.39217704  0.78628179     0.36700
N815        N  0.08176828  0.37047417  0.76500901    -0.89900
H816        H  0.14833715  0.33793131  0.75266461     0.17800
H817        H  0.13656826  0.49023659  0.85826477     0.17800
N818        N  0.20361799  0.46608484  0.83368307    -0.88900
H819        H  0.08169209  0.32838270  0.76827615     0.35200
H820        H  0.08439623  0.38015781  0.73142916     0.40300
H821        H  0.20143457  0.50229732  0.81630518     0.39900
H822        H  0.20318316  0.47614077  0.86736808     0.34800
C823        C  0.08749506  0.16799327  0.88606511    -0.26900
C824        C  0.08546859  0.13867847  0.84595720    -0.15000
C825        C  0.11441985  0.14241392  0.81498907     0.35600
C826        C  0.14235379  0.17929087  0.82225377    -0.26400
C827        C  0.14468300  0.20717896  0.86255609    -0.15600
C828        C  0.11710891  0.20106985  0.89481990     0.36700
N829        N  0.11862742  0.22983051  0.93591517    -0.89900
H830        H  0.06621336  0.16468235  0.91129582     0.17800
H831        H  0.16173182  0.18754649  0.79563904     0.17800
N832        N  0.11628405  0.10736830  0.77731395    -0.88900
H833        H  0.11710349  0.20152215  0.96164371     0.35200
H834        H  0.09620745  0.25428851  0.93906384     0.40300
H835        H  0.11870982  0.06786530  0.78898383     0.39900
H836        H  0.13931211  0.11558572  0.75776839     0.34800
C837        C  0.90693695  0.10701381  0.80595738    -0.26900
C838        C  0.92141696  0.09634133  0.84757183    -0.15000
C839        C  0.90110977  0.10931919  0.88578083     0.35600
C840        C  0.86901516  0.13698726  0.88236246    -0.26400
C841        C  0.85733282  0.15521733  0.84111558    -0.15600
C842        C  0.87523585  0.13636768  0.80246063     0.36700
N843        N  0.86291779  0.15144597  0.75984535    -0.89900
H844        H  0.92126148  0.09489384  0.77580235     0.17800
H845        H  0.85678562  0.15168218  0.91273984     0.17800
N846        N  0.91406394  0.09780867  0.92842838    -0.88900
H847        H  0.87920523  0.13500825  0.73452769     0.35200
H848        H  0.83756712  0.13400716  0.75680454     0.40300
H849        H  0.89460516  0.07401304  0.94513651     0.39900
H850        H  0.91690618  0.13458889  0.94510858     0.34800
C851        C  0.94965630  0.33773231  0.88486472    -0.26900
C852        C  0.94449942  0.38999887  0.86823233    -0.15000
C853        C  0.91093314  0.41341442  0.87569330     0.35600
C854        C  0.88250369  0.38279000  0.89412798    -0.26400
C855        C  0.88522322  0.32660825  0.89908806    -0.15600
C856        C  0.92022172  0.30585858  0.90090011     0.36700
N857        N  0.92528347  0.25172531  0.91644116    -0.89900
H858        H  0.97632400  0.32157182  0.88455114     0.17800
H859        H  0.85740968  0.40269529  0.90076972     0.17800
N860        N  0.90553898  0.46887208  0.86506825    -0.88900
H861        H  0.91665315  0.25040052  0.94978956     0.35200
H862        H  0.95238529  0.24247504  0.91530621     0.40300
H863        H  0.89631264  0.48823157  0.89397816     0.39900
H864        H  0.88546027  0.47056869  0.84210544     0.34800
O865        O  0.03873087  0.56116238  0.30091773    -0.72400
O866        O  0.96885022  0.94506781  0.31215677    -0.72600
O867        O  0.96614272  0.55456677  0.31054095    -0.72500
O868        O  0.04099733  0.95386035  0.29852134    -0.72500
O869        O  0.05419416  0.96816179  0.36689472    -0.72400
O870        O  0.96313104  0.54372799  0.38180010    -0.72400
O871        O  0.98536423  0.93490034  0.37972125    -0.72400
O872        O  0.03228959  0.57363003  0.37198491    -0.72600
V873        V  0.00286906  0.50402907  0.30805640     1.35200
V874        V  0.00816153  0.00248451  0.37448753     1.35200
C875        C  0.04741139  0.58670118  0.33577761     0.76900
C876        C  0.96541442  0.92064658  0.34942686     0.76900
C877        C  0.94938639  0.56210534  0.34683182     0.76800
C878        C  0.06271678  0.94868833  0.32876345     0.76700
C879        C  0.17929731  0.82231229  0.32396435     0.85900
C880        C  0.19233244  0.83848583  0.36912821    -0.54400
C881        C  0.20425452  0.79806877  0.39453635     0.08800
C882        C  0.20181190  0.74133763  0.37177231     0.19800
C883        C  0.21067951  0.79138833  0.30169018    -0.55100
C884        C  0.22245967  0.74821166  0.32604664     0.08900
C885        C  0.15141762  0.77802010  0.33516009    -0.54600
C886        C  0.16203077  0.73559080  0.35945558     0.09500
H887        H  0.19174929  0.87939531  0.38155251     0.14000
H888        H  0.21139159  0.70767094  0.39221583    -0.00300
H889        H  0.21920216  0.79820686  0.26731648     0.14300
H890        H  0.12436151  0.77923619  0.32403587     0.14100
C891        C  0.84631884  0.78249118  0.38752004     0.85900
C892        C  0.81654036  0.81222425  0.36593377    -0.54400
C893        C  0.79122530  0.78123624  0.34699851     0.08800
C894        C  0.79535201  0.71914133  0.35878239     0.19800
C895        C  0.82659870  0.74885940  0.42458426    -0.55100
C896        C  0.79901214  0.71632742  0.41004769     0.08900
C897        C  0.85809946  0.74173313  0.35168129    -0.54600
C898        C  0.83344620  0.70387195  0.34095794     0.09500
H899        H  0.81736718  0.85540156  0.36058889     0.14000
H900        H  0.77400154  0.69255450  0.34595408    -0.00300
H901        H  0.83398113  0.75023498  0.45897299     0.14300
H902        H  0.88583554  0.73674163  0.34097130     0.14100
C903        C  0.67201834  0.91369136  0.42596722     0.85900
C904        C  0.68753813  0.89906131  0.38049274    -0.54400
C905        C  0.69885854  0.94061526  0.35439354     0.08800
C906        C  0.69482942  0.49710227  0.38035388     0.19800
C907        C  0.70118503  0.94904642  0.44696683    -0.55100
C908        C  0.71157380  0.49516857  0.42667671     0.08900
C909        C  0.64245177  0.95369542  0.41568144    -0.54600
C910        C  0.65417450  0.49452029  0.39217142     0.09500
H911        H  0.68963559  0.85798329  0.36851556     0.14000
H912        H  0.70319952  0.53281501  0.36002250    -0.00300
H913        H  0.70908078  0.94311183  0.48082065     0.14300
H914        H  0.61503176  0.94972116  0.42829828     0.14100
O915        O  0.45743555  0.68853779  0.44589376    -0.72400
O916        O  0.53686129  0.77746589  0.45423211    -0.72600
O917        O  0.46782402  0.79611291  0.44332334    -0.72500
O918        O  0.52875093  0.67126678  0.44985627    -0.72500
O919        O  0.52450216  0.66399913  0.37883196    -0.72400
O920        O  0.48499367  0.80243450  0.37414206    -0.72400
O921        O  0.55167988  0.76465127  0.38494002    -0.72400
O922        O  0.45580202  0.70248805  0.37545270    -0.72600
V923        V  0.49763757  0.73308953  0.44726282     1.35200
V924        V  0.50412283  0.73308709  0.37911337     1.35200
C925        C  0.43994436  0.68609192  0.41153287     0.76900
C926        C  0.55954355  0.78280785  0.42315338     0.76900
C927        C  0.46719276  0.82149730  0.40637499     0.76800
C928        C  0.53836958  0.64786959  0.41361871     0.76700
C929        C  0.35400568  0.97618072  0.37524384     0.85900
C930        C  0.32305689  0.94083611  0.39079877    -0.54400
C931        C  0.29361290  0.96596357  0.40683409     0.08800
C932        C  0.29352307  0.53017154  0.39232221     0.19800
C933        C  0.33847420  0.00406670  0.33379863    -0.55100
C934        C  0.30689367  0.53433302  0.34231613     0.08900
C935        C  0.35750502  0.02310950  0.40709523    -0.54600
C936        C  0.32559808  0.55526395  0.41656254     0.09500
H937        H  0.32664154  0.89739133  0.39376405     0.14000
H938        H  0.26799258  0.55085164  0.40008002    -0.00300
H939        H  0.35134709  0.00319517  0.30097330     0.14300
H940        H  0.38399312  0.03717720  0.41574434     0.14100
O941        O  0.29692452  0.89661279  0.04027986    -0.72400
O942        O  0.24635903  0.79945198  0.45335694    -0.72600
O943        O  0.28759787  0.88907692  0.45479615    -0.72500
O944        O  0.25686718  0.80446477  0.04104939    -0.72500
O945        O  0.20939935  0.85307000  0.04123929    -0.72400
O946        O  0.24395864  0.94479303  0.46177150    -0.72400
O947        O  0.20201418  0.85466563  0.45769396    -0.72400
O948        O  0.24900643  0.94431566  0.04756513    -0.72600
V949        V  0.26729265  0.84249539  0.49890845     1.35200
V950        V  0.22339648  0.89271184  0.50436927     1.35200
C951        C  0.27946572  0.93298732  0.06089647     0.76900
C952        C  0.21737783  0.81532912  0.43833970     0.76900
C953        C  0.27350718  0.93292695  0.44271348     0.76800
C954        C  0.22602662  0.81358786  0.05749644     0.76700
O955        O  0.01705911  0.93370688  0.14893215    -0.72400
O956        O  0.96976666  0.56562478  0.13496830    -0.72600
O957        O  0.94933032  0.96250003  0.13129410    -0.72500
O958        O  0.03842638  0.53781585  0.14642894    -0.72500
O959        O  0.03969885  0.55554882  0.07613426    -0.72400
O960        O  0.97112948  0.94935581  0.06459065    -0.72400
O961        O  0.96882567  0.55620621  0.06364183    -0.72400
O962        O  0.04097518  0.94774239  0.08316953    -0.72600
V963        V  0.99355361  0.49996907  0.13685042     1.35200
V964        V  0.00522566  0.50187614  0.06977668     1.35200
C965        C  0.04058763  0.92211891  0.11995570     0.76900
C966        C  0.95700402  0.57959494  0.09900409     0.76900
C967        C  0.94580355  0.94302248  0.09237894     0.76800
C968        C  0.05442628  0.55957248  0.11253702     0.76700
C969        C  0.15551271  0.78257527  0.14633395     0.85900
C970        C  0.14361544  0.73937950  0.11341010    -0.54400
C971        C  0.16891199  0.70379659  0.09998370     0.08800
C972        C  0.20690362  0.72291831  0.11177581     0.19800
C973        C  0.17703851  0.75210188  0.18117081    -0.55100
C974        C  0.20439944  0.72080699  0.16345953     0.08900
C975        C  0.18353209  0.81411689  0.11901761    -0.54600
C976        C  0.20910789  0.78482127  0.09767785     0.09500
H977        H  0.11601204  0.73149459  0.10604301     0.14000
H978        H  0.22823400  0.69775350  0.09630005    -0.00300
H979        H  0.17018508  0.75310104  0.21641392     0.14300
H980        H  0.18089746  0.85675234  0.11188217     0.14100
C981        C  0.83104811  0.82006487  0.07636901     0.85900
C982        C  0.85787436  0.77778724  0.09050623    -0.54400
C983        C  0.84401606  0.73518945  0.11356011     0.08800
C984        C  0.80319155  0.73950826  0.12384643     0.19800
C985        C  0.80221602  0.78706788  0.05268159    -0.55100
C986        C  0.78783545  0.74408365  0.07692884     0.08900
C987        C  0.81311754  0.83702830  0.11996924    -0.54600
C988        C  0.79833543  0.79704083  0.14536827     0.09500
H989        H  0.88608394  0.77894763  0.08096620     0.14000
H990        H  0.79157880  0.70555451  0.14398164    -0.00300
H991        H  0.79693659  0.79314537  0.01795192     0.14300
H992        H  0.81220658  0.87848381  0.13126296     0.14100
C993        C  0.65036397  0.96718458  0.11016748     0.85900
C994        C  0.63984931  0.00933011  0.14534427    -0.54400
C995        C  0.66459572  0.54019421  0.15197075     0.08800
C996        C  0.70314625  0.52321102  0.13766425     0.19800
C997        C  0.67229377  0.99820265  0.07395603    -0.55100
C998        C  0.70123936  0.52324795  0.08610429     0.08900
C999        C  0.67739500  0.93373973  0.13374763    -0.54600
C1000       C  0.70436992  0.96140281  0.15245539     0.09500
H1001       H  0.61240341  0.01763041  0.15539089     0.14000
H1002       H  0.72397565  0.55058734  0.15071465    -0.00300
H1003       H  0.66514527  0.99839752  0.03945332     0.14300
H1004       H  0.67315615  0.89098439  0.14016735     0.14100
C1005       C  0.32107904  0.91337129  0.16918743     0.85900
C1006       C  0.35336168  0.94622766  0.14998768    -0.54400
C1007       C  0.34522345  0.49723199  0.13534417     0.08800
C1008       C  0.30505113  0.50058405  0.12706497     0.19800
C1009       C  0.29951567  0.95450310  0.19772030    -0.55100
C1010       C  0.28802887  0.49804176  0.17446021     0.08900
C1011       C  0.29770639  0.90356922  0.13043524    -0.54600
C1012       C  0.29104356  0.94744167  0.10583114     0.09500
H1013       H  0.38069895  0.93669828  0.15721869     0.14000
H1014       H  0.29791168  0.53664767  0.10762247    -0.00300
H1015       H  0.29325420  0.94879995  0.23284801     0.14300
H1016       H  0.28752195  0.86460113  0.12079001     0.14100
O1017       O  0.53740434  0.69535650  0.18076801    -0.72400
O1018       O  0.46048398  0.78932322  0.19513009    -0.72600
O1019       O  0.46538513  0.68185765  0.19151023    -0.72500
O1020       O  0.53186947  0.80246234  0.17825935    -0.72500
O1021       O  0.51457744  0.80945005  0.11068027    -0.72400
O1022       O  0.47003528  0.67426837  0.11997826    -0.72400
O1023       O  0.44680749  0.77488640  0.12692631    -0.72400
O1024       O  0.53824330  0.70763911  0.10968761    -0.72600
V1025       V  0.49871691  0.74231782  0.18558608     1.35200
V1026       V  0.49253577  0.74169809  0.11783136     1.35200
C1027       C  0.55318378  0.68913433  0.14364597     0.76900
C1028       C  0.43828681  0.79325691  0.16532931     0.76900
C1029       C  0.45632751  0.65779895  0.15612198     0.76800
C1030       C  0.53426634  0.82575933  0.14054649     0.76700
O1031       O  0.70557582  0.59994236  0.03545285    -0.72400
O1032       O  0.74464077  0.68172599  0.44701847    -0.72600
O1033       O  0.70719449  0.58559028  0.45450360    -0.72500
O1034       O  0.74261290  0.69863447  0.03515757    -0.72500
O1035       O  0.79145649  0.65583952  0.04552939    -0.72400
O1036       O  0.75608979  0.54380604  0.46752895    -0.69200
O1037       O  0.79365150  0.64205289  0.46251448    -0.72400
O1038       O  0.75484285  0.55962320  0.04883814    -0.72600
V1039       V  0.73125165  0.64468406  0.99194098     1.35200
V1040       V  0.77789257  0.60330372  0.00303822     1.35200
C1041       C  0.72146226  0.56296366  0.05595721     0.76900
C1042       C  0.77809376  0.67787861  0.44051795     0.76900
C1043       C  0.72620182  0.54406603  0.44930548     0.76800
C1044       C  0.77256401  0.69690588  0.05294823     0.76700
O1045       O  0.26900309  0.70068772  0.28331418    -0.72400
O1046       O  0.29147334  0.59039030  0.19739292    -0.72600
O1047       O  0.25741697  0.68786244  0.19748104    -0.72500
O1048       O  0.30480433  0.60113557  0.28283672    -0.72500
O1049       O  0.25419937  0.56536109  0.30510351    -0.72400
O1050       O  0.20862457  0.64214426  0.21173863    -0.72400
O1051       O  0.24440075  0.54455294  0.21974207    -0.72400
O1052       O  0.21819800  0.66020752  0.29638703    -0.72600
V1053       V  0.27988067  0.64415519  0.24075644     1.35200
V1054       V  0.23228299  0.60380011  0.25767196     1.35200
C1055       C  0.23802659  0.70081845  0.30198981     0.76900
C1056       C  0.27341489  0.54668171  0.19709574     0.76900
C1057       C  0.22445610  0.68136905  0.19135230     0.76800
C1058       C  0.28787532  0.56784256  0.30834810     0.76700
O1059       O  0.79428029  0.85752512  0.20619290    -0.72400
O1060       O  0.74557076  0.93927605  0.29653761    -0.72600
O1061       O  0.78872828  0.85300011  0.29428837    -0.72500
O1062       O  0.75084312  0.94462237  0.20619249    -0.72500
O1063       O  0.70700870  0.88699369  0.20308399    -0.72400
O1064       O  0.74463267  0.79575264  0.29236499    -0.72400
O1065       O  0.70107078  0.88281447  0.29172191    -0.72400
O1066       O  0.75017337  0.80032094  0.20178567    -0.72600
V1067       V  0.76909013  0.89722973  0.25070066     1.35200
V1068       V  0.72642066  0.84282148  0.24727784     1.35200
C1069       C  0.78067519  0.81636601  0.18764579     0.76900
C1070       C  0.71508918  0.92332110  0.31076627     0.76900
C1071       C  0.77372623  0.80979470  0.30919666     0.76800
C1072       C  0.72192104  0.93073625  0.18899852     0.76700
C1073       C  0.37324805  0.79404188  0.15502509    -0.26900
C1074       C  0.40251708  0.81475971  0.17684494    -0.15000
C1075       C  0.39603223  0.84997373  0.21322310     0.35600
C1076       C  0.36176998  0.87132303  0.22125493    -0.26400
C1077       C  0.33520652  0.86188375  0.19049936    -0.15600
C1078       C  0.33918980  0.81437760  0.16424091     0.36700
N1079       N  0.30894783  0.78510686  0.14868199    -0.89900
H1080       H  0.37653469  0.76075148  0.13190490     0.17800
H1081       H  0.35876163  0.90418785  0.24483658     0.17800
N1082       N  0.42445188  0.86705170  0.24024595    -0.88900
H1083       H  0.30927745  0.74626554  0.16220795     0.35200
H1084       H  0.31223858  0.78085862  0.11427550     0.40300
H1085       H  0.41723170  0.85619091  0.27284973     0.39900
H1086       H  0.42650239  0.90921511  0.23844775     0.34800
C1087       C  0.42648318  0.58514976  0.11375857    -0.26900
C1088       C  0.42841645  0.61481990  0.15369936    -0.15000
C1089       C  0.40077310  0.60833204  0.18622211     0.35600
C1090       C  0.37259323  0.57169837  0.17876994    -0.26400
C1091       C  0.37040879  0.54350503  0.13835589    -0.15600
C1092       C  0.39789293  0.54973320  0.10611569     0.36700
N1093       N  0.39744361  0.51810038  0.06637725    -0.89900
H1094       H  0.44729939  0.58945756  0.08801320     0.17800
H1095       H  0.35323762  0.56356280  0.20549102     0.17800
N1096       N  0.40074808  0.63935415  0.22631081    -0.88900
H1097       H  0.42815969  0.98912539  0.07137821     0.35200
H1098       H  0.40894150  0.03959633  0.04369209     0.40300
H1099       H  0.39989967  0.61250226  0.25307716     0.39900
H1100       H  0.37741716  0.66194039  0.22814456     0.34800
C1101       C  0.63463530  0.60823402  0.10576123    -0.26900
C1102       C  0.64948840  0.59563363  0.14691537    -0.15000
C1103       C  0.63641434  0.62292592  0.18471653     0.35600
C1104       C  0.60669875  0.65661601  0.18201037    -0.26400
C1105       C  0.58847669  0.66198074  0.14221876    -0.15600
C1106       C  0.60356597  0.63865239  0.10348719     0.36700
N1107       N  0.58604813  0.64039385  0.06235138    -0.89900
H1108       H  0.64333420  0.58708135  0.07606844     0.17800
H1109       H  0.59638860  0.67556724  0.21214640     0.17800
N1110       N  0.65126341  0.61278757  0.22672928    -0.88900
H1111       H  0.58360735  0.68080303  0.05305427     0.35200
H1112       H  0.56063987  0.62278718  0.06672492     0.40300
H1113       H  0.62403741  0.06924945  0.25643655     0.39900
H1114       H  0.64978974  0.12468284  0.26452204     0.34800
C1115       C  0.62180383  0.87718961  0.09212786    -0.26900
C1116       C  0.61812258  0.93344249  0.09540460    -0.15000
C1117       C  0.58293412  0.95302213  0.10119012     0.35600
C1118       C  0.55573191  0.91815443  0.11857073    -0.26400
C1119       C  0.56302171  0.86379022  0.12711776    -0.15600
C1120       C  0.59533629  0.84255041  0.11011181     0.36700
N1121       N  0.60136910  0.78559995  0.11083265    -0.89900
H1122       H  0.64697787  0.86017992  0.08074259     0.17800
H1123       H  0.52910763  0.93318078  0.12535284     0.17800
N1124       N  0.57551137  0.00825865  0.09059581    -0.88900
H1125       H  0.62414393  0.77881211  0.12874860     0.35200
H1126       H  0.60655614  0.77281292  0.07821743     0.40300
H1127       H  0.58546970  0.49004167  0.04600782     0.39900
H1128       H  0.54844125  0.01609234  0.09648049     0.34800
C1129       C  0.06126899  0.83177548  0.14501589    -0.26900
C1130       C  0.06917783  0.88565463  0.13306064    -0.15000
C1131       C  0.10205370  0.90801099  0.14542773     0.35600
C1132       C  0.12828038  0.87457301  0.16184801    -0.26400
C1133       C  0.12373049  0.81795888  0.16216429    -0.15600
C1134       C  0.08805000  0.79823371  0.16086324     0.36700
N1135       N  0.07907640  0.74457871  0.17593832    -0.89900
H1136       H  0.03440668  0.81579880  0.14215920     0.17800
H1137       H  0.15369081  0.89264484  0.16992418     0.17800
N1138       N  0.10884325  0.96493845  0.14185625    -0.88900
H1139       H  0.06089928  0.74786397  0.20292522     0.35200
H1140       H  0.06594720  0.72412354  0.15085083     0.40300
H1141       H  0.13159973  0.97103279  0.12123083     0.39900
H1142       H  0.11440229  0.97960417  0.17337859     0.34800
C1143       C  0.10767248  0.59512867  0.06961694    -0.26900
C1144       C  0.09044911  0.58573115  0.11157653    -0.15000
C1145       C  0.10832005  0.60087811  0.14961270     0.35600
C1146       C  0.14080614  0.62975992  0.14491344    -0.26400
C1147       C  0.15470142  0.64721368  0.10276158    -0.15600
C1148       C  0.13936379  0.62547818  0.06484192     0.36700
N1149       N  0.15305072  0.63853128  0.02091892    -0.89900
H1150       H  0.09554651  0.58123795  0.03959852     0.17800
H1151       H  0.15135012  0.64652940  0.17468621     0.17800
N1152       N  0.09254236  0.59074886  0.19286841    -0.88900
H1153       H  0.15946497  0.60216784  0.00505315     0.35200
H1154       H  0.17694841  0.66065953  0.02219300     0.40300
H1155       H  0.08894912  0.62792060  0.20883316     0.39900
H1156       H  0.11056362  0.56864362  0.21084965     0.34800
C1157       C  0.87102008  0.65445663  0.07768634    -0.26900
C1158       C  0.86729778  0.68722031  0.11568334    -0.15000
C1159       C  0.89435722  0.68603117  0.14663758     0.35600
C1160       C  0.92345353  0.65175209  0.13972732    -0.26400
C1161       C  0.92716977  0.61882258  0.10157879    -0.15600
C1162       C  0.89980494  0.61908506  0.07099901     0.36700
N1163       N  0.90108672  0.58383360  0.03322507    -0.89900
H1164       H  0.85309338  0.65942825  0.05115775     0.17800
H1165       H  0.94385095  0.65190995  0.16413874     0.17800
N1166       N  0.89420858  0.72226607  0.18370409    -0.88900
H1167       H  0.87792205  0.58799290  0.01551600     0.35200
H1168       H  0.90041913  0.54408218  0.04482064     0.40300
H1169       H  0.86965960  0.71810738  0.20097653     0.39900
H1170       H  0.89614411  0.76187139  0.17169836     0.34800
C1171       C  0.88203179  0.85494337  0.02787565    -0.26900
C1172       C  0.84985454  0.86720187  0.05072414    -0.15000
C1173       C  0.84853529  0.91979232  0.06933900     0.35600
C1174       C  0.87978977  0.94207605  0.08636475    -0.26400
C1175       C  0.91270656  0.91797421  0.07633363    -0.15600
C1176       C  0.91398341  0.87763587  0.04279210     0.36700
N1177       N  0.94736492  0.85749094  0.02566086    -0.89900
H1178       H  0.88343918  0.81918227  0.00712917     0.17800
H1179       H  0.87852761  0.97888429  0.10583344     0.17800
N1180       N  0.81558803  0.94821229  0.07485565    -0.88900
H1181       H  0.94846163  0.86315158  0.99130245     0.35200
H1182       H  0.94785291  0.81591215  0.03180130     0.40300
H1183       H  0.79516780  0.92599244  0.06033129     0.39900
H1184       H  0.81844433  0.98428980  0.05695377     0.34800
C1185       C  0.42000797  0.88398793  0.43269103    -0.26900
C1186       C  0.44395418  0.86907711  0.39891251    -0.15000
C1187       C  0.44280410  0.89650005  0.35734475     0.35600
C1188       C  0.41383935  0.93102403  0.34853649    -0.26400
C1189       C  0.38775897  0.94197543  0.38170225    -0.15600
C1190       C  0.39306085  0.92060028  0.42524061     0.36700
N1191       N  0.37015228  0.93500819  0.46249068    -0.89900
H1192       H  0.42140558  0.86594831  0.46527358     0.17800
H1193       H  0.41185874  0.94949470  0.31625834     0.17800
N1194       N  0.47124863  0.88985874  0.32458065    -0.88900
H1195       H  0.35850463  0.89968471  0.47594338     0.35200
H1196       H  0.38587023  0.95278885  0.48651181     0.40300
H1197       H  0.49477371  0.90345918  0.33865315     0.39900
H1198       H  0.46773494  0.91535026  0.29759628     0.34800
C1199       C  0.37825820  0.66879793  0.38192267    -0.26900
C1200       C  0.40180872  0.66642661  0.41673560    -0.15000
C1201       C  0.38722284  0.64917084  0.45895189     0.35600
C1202       C  0.35335746  0.62389351  0.46243164    -0.26400
C1203       C  0.33394802  0.61404056  0.42453652    -0.15600
C1204       C  0.34325506  0.64678613  0.38733630     0.36700
N1205       N  0.31673766  0.65920475  0.35644881    -0.89900
H1206       H  0.38664281  0.68883386  0.35127273     0.17800
H1207       H  0.34514236  0.60385686  0.49311392     0.17800
N1208       N  0.40702180  0.65525882  0.49830562    -0.88900
H1209       H  0.32732142  0.68575006  0.33220730     0.35200
H1210       H  0.29643235  0.67989574  0.37367257     0.40300
H1211       H  0.41199720  0.61689810  0.51077261     0.39900
H1212       H  0.39146347  0.67635901  0.52183097     0.34800
C1213       C  0.57702136  0.58564032  0.36692349    -0.26900
C1214       C  0.56783044  0.60730271  0.40927416    -0.15000
C1215       C  0.58992397  0.59500494  0.44445333     0.35600
C1216       C  0.61985088  0.56195827  0.43712335    -0.26400
C1217       C  0.62869106  0.54028594  0.39501201    -0.15600
C1218       C  0.60662152  0.55196433  0.35982518     0.36700
N1219       N  0.61305619  0.52844071  0.31695320    -0.89900
H1220       H  0.56094757  0.59453050  0.33890675     0.17800
H1221       H  0.63557095  0.55130719  0.46508820     0.17800
N1222       N  0.58240944  0.61617630  0.48777131    -0.88900
H1223       H  0.59411977  0.96325186  0.34477217     0.35200
H1224       H  0.61783429  0.00399448  0.30949376     0.40300
H1225       H  0.60479576  0.63867261  0.49678830     0.39900
H1226       H  0.57910757  0.58358359  0.50964809     0.34800
C1227       C  0.62644493  0.78766101  0.41936796    -0.26900
C1228       C  0.59377603  0.80864626  0.43469376    -0.15000
C1229       C  0.59430102  0.84810319  0.46897575     0.35600
C1230       C  0.62661096  0.87336644  0.47960296    -0.26400
C1231       C  0.65699752  0.86426285  0.45233839    -0.15600
C1232       C  0.65839943  0.81226638  0.43240953     0.36700
N1233       N  0.69169322  0.78615085  0.42276367    -0.89900
H1234       H  0.62715068  0.75143225  0.39916184     0.17800
H1235       H  0.62577194  0.90855175  0.50100529     0.17800
N1236       N  0.56189638  0.86493631  0.49113548    -0.88900
H1237       H  0.69103636  0.74979013  0.44039251     0.35200
H1238       H  0.71255169  0.80941117  0.43525507     0.40300
H1239       H  0.55871484  0.90608502  0.48491238     0.39900
H1240       H  0.56427995  0.85914448  0.52516810     0.34800
C1241       C  0.13195249  0.85645432  0.27435526    -0.26900
C1242       C  0.16213976  0.86945562  0.29872384    -0.15000
C1243       C  0.16233207  0.92211982  0.31713203     0.35600
C1244       C  0.12968039  0.94638457  0.32961366    -0.26400
C1245       C  0.09732671  0.92270300  0.31716075    -0.15600
C1246       C  0.09893438  0.87970904  0.28624970     0.36700
N1247       N  0.06686022  0.85701108  0.26937557    -0.89900
H1248       H  0.13183073  0.81982420  0.25470702     0.17800
H1249       H  0.12973724  0.98376923  0.34820382     0.17800
N1250       N  0.19544063  0.95044414  0.32295999    -0.88900
H1251       H  0.06563016  0.81586673  0.27734662     0.35200
H1252       H  0.06836629  0.86071561  0.23494119     0.40300
H1253       H  0.19559955  0.98481816  0.30282865     0.39900
H1254       H  0.19614414  0.96407791  0.35571205     0.34800
C1255       C  0.11197630  0.60766956  0.33428937    -0.26900
C1256       C  0.07688704  0.62651173  0.33834892    -0.15000
C1257       C  0.07060433  0.67545236  0.36102925     0.35600
C1258       C  0.09949848  0.70626077  0.37586536    -0.26400
C1259       C  0.13507643  0.69060482  0.36715533    -0.15600
C1260       C  0.14085796  0.63795771  0.35073848     0.36700
N1261       N  0.17523397  0.61412272  0.35330294    -0.89900
H1262       H  0.11648034  0.56764827  0.32096010     0.17800
H1263       H  0.09443929  0.74552691  0.39061406     0.17800
N1264       N  0.03467760  0.69353514  0.36899825    -0.88900
H1265       H  0.17489336  0.57476081  0.34063033     0.35200
H1266       H  0.18086808  0.61102912  0.38682910     0.40300
H1267       H  0.02400090  0.70109501  0.33819141     0.39900
H1268       H  0.03448106  0.73020935  0.38627109     0.34800
C1269       C  0.89949043  0.60168185  0.30472918    -0.26900
C1270       C  0.91408431  0.58954583  0.34597046    -0.15000
C1271       C  0.89403850  0.60234030  0.38457649     0.35600
C1272       C  0.86171963  0.62989252  0.38177721    -0.26400
C1273       C  0.84960082  0.64869090  0.34085295    -0.15600
C1274       C  0.86756344  0.63040231  0.30183310     0.36700
N1275       N  0.85537023  0.64360700  0.25876496    -0.89900
H1276       H  0.91348229  0.59030678  0.27412702     0.17800
H1277       H  0.84919140  0.64326886  0.41246385     0.17800
N1278       N  0.90704559  0.58955073  0.42700461    -0.88900
H1279       H  0.85018420  0.60724547  0.24235800     0.35200
H1280       H  0.83107150  0.66364456  0.26144679     0.40300
H1281       H  0.88803081  0.56406707  0.44250062     0.39900
H1282       H  0.90883520  0.62531016  0.44536188     0.34800
C1283       C  0.94170202  0.83147382  0.37749463    -0.26900
C1284       C  0.93534086  0.88403295  0.36230225    -0.15000
C1285       C  0.90225063  0.90709274  0.37384273     0.35600
C1286       C  0.87519808  0.87587880  0.39491215    -0.26400
C1287       C  0.87838904  0.81955046  0.39892560    -0.15600
C1288       C  0.91361615  0.79932634  0.39670295     0.36700
N1289       N  0.92005234  0.74523544  0.41138641    -0.89900
H1290       H  0.96841348  0.81557054  0.37426833     0.17800
H1291       H  0.85057263  0.89550638  0.40473675     0.17800
N1292       N  0.89617556  0.96294059  0.36528930    -0.88900
H1293       H  0.91388351  0.74379206  0.44544777     0.35200
H1294       H  0.94709328  0.73622216  0.40709926     0.40300
H1295       H  0.88930081  0.98134124  0.39552326     0.39900
H1296       H  0.87431908  0.96552542  0.34502587     0.34800
O1297       O  0.04902564  0.56536268  0.80620635    -0.72400
O1298       O  0.97628188  0.95932823  0.81671202    -0.72600
O1299       O  0.97676530  0.55692691  0.81440374    -0.72500
O1300       O  0.04808958  0.96679826  0.80193608    -0.72500
O1301       O  0.06227143  0.98170445  0.86986618    -0.72400
O1302       O  0.97291108  0.54321331  0.88532251    -0.72400
O1303       O  0.99339901  0.94958178  0.88407072    -0.72400
O1304       O  0.04198800  0.57436675  0.87744198    -0.72600
V1305       V  0.01379407  0.50715524  0.81117113     1.35200
V1306       V  0.01650752  0.01675043  0.87796286     1.35200
C1307       C  0.05721049  0.58977580  0.84182396     0.76900
C1308       C  0.97320455  0.93509769  0.85411638     0.76900
C1309       C  0.95957404  0.56289165  0.85058449     0.76800
C1310       C  0.07006049  0.96145230  0.83176510     0.76700
C1311       C  0.18613194  0.83247878  0.82275363     0.85900
C1312       C  0.20649352  0.84877549  0.86311469    -0.54400
C1313       C  0.21708904  0.80772597  0.88882141     0.08800
C1314       C  0.20842940  0.75060768  0.86942060     0.19800
C1315       C  0.21204834  0.79434463  0.79646879    -0.55100
C1316       C  0.22403711  0.75111705  0.82093680     0.08900
C1317       C  0.15663335  0.79446653  0.84201076    -0.54600
C1318       C  0.16769988  0.75076352  0.86387059     0.09500
H1319       H  0.21017442  0.89001160  0.87375805     0.14000
H1320       H  0.21732192  0.71646535  0.88988574    -0.00300
H1321       H  0.21741111  0.79814189  0.76099013     0.14300
H1322       H  0.12857807  0.79816638  0.83512381     0.14100
C1323       C  0.85802972  0.78832285  0.88717996     0.85900
C1324       C  0.83032961  0.81736809  0.86125561    -0.54400
C1325       C  0.80474178  0.78621403  0.84309486     0.08800
C1326       C  0.80752811  0.72462226  0.85748309     0.19800
C1327       C  0.83609002  0.75728441  0.92412533    -0.55100
C1328       C  0.80908001  0.72406311  0.90901339     0.08900
C1329       C  0.87088524  0.74512373  0.85413713    -0.54600
C1330       C  0.84610021  0.70773822  0.84266343     0.09500
H1331       H  0.83272434  0.86001528  0.85345382     0.14000
H1332       H  0.78660727  0.69776701  0.84399272    -0.00300
H1333       H  0.84230098  0.75981875  0.95886731     0.14300
H1334       H  0.89881501  0.73888493  0.84522909     0.14100
C1335       C  0.67969767  0.92008589  0.92509442     0.85900
C1336       C  0.69899991  0.90549554  0.88202815    -0.54400
C1337       C  0.71009997  0.94700450  0.85574958     0.08800
C1338       C  0.69924728  0.50483554  0.87738310     0.19800
C1339       C  0.70617464  0.95801817  0.94845967    -0.55100
C1340       C  0.71879556  0.50254858  0.92192001     0.08900
C1341       C  0.64983149  0.95746991  0.91075787    -0.54600
C1342       C  0.65907239  0.50655716  0.89249843     0.09500
H1343       H  0.70331331  0.86438326  0.87133657     0.14000
H1344       H  0.70814767  0.53888580  0.85548417    -0.00300
H1345       H  0.71270886  0.95282002  0.98289510     0.14300
H1346       H  0.62200962  0.95212092  0.92136385     0.14100
O1347       O  0.46312434  0.69914450  0.94274588    -0.72400
O1348       O  0.54140991  0.79096716  0.95094545    -0.72600
O1349       O  0.47251417  0.80689408  0.93877408    -0.72500
O1350       O  0.53464587  0.68418918  0.94827039    -0.72500
O1351       O  0.53030123  0.67423250  0.87734443    -0.72400
O1352       O  0.49058018  0.81210336  0.86983053    -0.72400
O1353       O  0.55711871  0.77543782  0.88227520    -0.72400
O1354       O  0.46201142  0.71166585  0.87203446    -0.72600
V1355       V  0.50281111  0.74494362  0.94418518     1.35200
V1356       V  0.50989418  0.74317161  0.87612376     1.35200
C1357       C  0.44614958  0.69509884  0.90799912     0.76900
C1358       C  0.56443568  0.79527772  0.92013047     0.76900
C1359       C  0.47249840  0.83172804  0.90157142     0.76800
C1360       C  0.54404378  0.65949305  0.91256589     0.76700
C1361       C  0.36146399  0.98835949  0.87133613     0.85900
C1362       C  0.33149344  0.95220583  0.88832730    -0.54400
C1363       C  0.30163572  0.97649223  0.90379398     0.08800
C1364       C  0.30084829  0.53413829  0.88924939     0.19800
C1365       C  0.34482082  0.01357233  0.82941657    -0.55100
C1366       C  0.31196622  0.53650253  0.83854093     0.08900
C1367       C  0.36442351  0.03647896  0.90210338    -0.54600
C1368       C  0.33371127  0.56082225  0.91047114     0.09500
H1369       H  0.33584477  0.90902140  0.89204326     0.14000
H1370       H  0.27543882  0.55450896  0.89829850    -0.00300
H1371       H  0.35702386  0.01131835  0.79629382     0.14300
H1372       H  0.39067979  0.05217614  0.91017521     0.14100
O1373       O  0.28996965  0.88335962  0.54331761    -0.72400
O1374       O  0.25684925  0.80959649  0.94994343    -0.72600
O1375       O  0.29616707  0.90052900  0.95217701    -0.72500
O1376       O  0.24856116  0.79325643  0.54419839    -0.72500
O1377       O  0.20176900  0.84346290  0.54633442    -0.72400
O1378       O  0.25143663  0.95451755  0.95713682    -0.72400
O1379       O  0.21143101  0.86290662  0.95239221    -0.72400
O1380       O  0.24305758  0.93303126  0.55216591    -0.72600
V1381       V  0.27582744  0.85392918  0.99592363     1.35200
V1382       V  0.23101712  0.90242906  0.99952577     1.35200
C1383       C  0.27339247  0.91992842  0.56481728     0.76900
C1384       C  0.22817302  0.82446153  0.93357238     0.76900
C1385       C  0.28150699  0.94346153  0.93921656     0.76800
C1386       C  0.21832475  0.80343092  0.56191547     0.76700
O1387       O  0.00785798  0.93083060  0.64699984    -0.72400
O1388       O  0.95716682  0.55626906  0.62700871    -0.72600
O1389       O  0.93987354  0.95956264  0.62684525    -0.72500
O1390       O  0.02569190  0.53146777  0.63937025    -0.72500
O1391       O  0.02812359  0.54478209  0.56839104    -0.72400
O1392       O  0.96374827  0.94249273  0.56196571    -0.72400
O1393       O  0.95743836  0.54524243  0.55574031    -0.72400
O1394       O  0.03338845  0.94475681  0.58219525    -0.72600
V1395       V  0.98163266  0.49142057  0.63077012     1.35200
V1396       V  0.99358380  0.49078325  0.56362722     1.35200
C1397       C  0.03263943  0.91980277  0.61940912     0.76900
C1398       C  0.94557979  0.57014400  0.59037411     0.76900
C1399       C  0.93719005  0.93879681  0.58813068     0.76800
C1400       C  0.04157444  0.55273178  0.60516736     0.76700
C1401       C  0.14902271  0.78179320  0.65161242     0.85900
C1402       C  0.13423157  0.74259738  0.61715330    -0.54400
C1403       C  0.15667208  0.70375276  0.60217513     0.08800
C1404       C  0.19548532  0.71473581  0.61543813     0.19800
C1405       C  0.16713522  0.74491687  0.68582014    -0.55100
C1406       C  0.19240790  0.71010400  0.66721123     0.08900
C1407       C  0.18059204  0.80909431  0.62698080    -0.54600
C1408       C  0.20294122  0.77635519  0.60372906     0.09500
H1409       H  0.10607777  0.73972697  0.61028480     0.14000
H1410       H  0.21500808  0.68690266  0.59941190    -0.00300
H1411       H  0.16088750  0.74652957  0.72119376     0.14300
H1412       H  0.18310219  0.85222631  0.62214550     0.14100
C1413       C  0.82384950  0.82181464  0.56710886     0.85900
C1414       C  0.85097884  0.77744602  0.57605688    -0.54400
C1415       C  0.83853881  0.73572936  0.60136211     0.08800
C1416       C  0.79923143  0.74218711  0.61818501     0.19800
C1417       C  0.79179124  0.79030215  0.54820767    -0.55100
C1418       C  0.77925792  0.74727630  0.57421534     0.08900
C1419       C  0.81087689  0.83884840  0.61330600    -0.54600
C1420       C  0.79800221  0.79951653  0.64049542     0.09500
H1421       H  0.87808613  0.77680788  0.56215721     0.14000
H1422       H  0.78899557  0.70873966  0.63990262    -0.00300
H1423       H  0.78361596  0.79628322  0.51448179     0.14300
H1424       H  0.81143139  0.88020852  0.62490017     0.14100
C1425       C  0.64851486  0.95353532  0.62200722     0.85900
C1426       C  0.63816002  0.99707409  0.65609120    -0.54400
C1427       C  0.65617790  0.53875720  0.66143799     0.08800
C1428       C  0.69413376  0.52216706  0.64393955     0.19800
C1429       C  0.66392486  0.98522588  0.58056271    -0.55100
C1430       C  0.69063900  0.52513454  0.59265194     0.08900
C1431       C  0.68184370  0.92741188  0.63701016    -0.54600
C1432       C  0.70642898  0.96071982  0.65400058     0.09500
H1433       H  0.61018316  0.00261838  0.66595087     0.14000
H1434       H  0.71570323  0.54816180  0.65697636    -0.00300
H1435       H  0.65415112  0.98031193  0.54744977     0.14300
H1436       H  0.68497751  0.88375149  0.63652821     0.14100
C1437       C  0.31058098  0.90447176  0.67813742     0.85900
C1438       C  0.34294625  0.94019421  0.66384543    -0.54400
C1439       C  0.33591765  0.48672555  0.64162095     0.08800
C1440       C  0.29627227  0.48953605  0.63042279     0.19800
C1441       C  0.28454957  0.94399808  0.70213560    -0.55100
C1442       C  0.27710192  0.48610160  0.67671103     0.08900
C1443       C  0.29302026  0.89144242  0.63500480    -0.54600
C1444       C  0.28597634  0.93428859  0.60932940     0.09500
H1445       H  0.36984240  0.93339632  0.67441748     0.14000
H1446       H  0.28976303  0.52585375  0.61090883    -0.00300
H1447       H  0.27649866  0.93975617  0.73693038     0.14300
H1448       H  0.28709114  0.85113273  0.62363653     0.14100
O1449       O  0.52585015  0.68661276  0.69777033    -0.72400
O1450       O  0.44702761  0.77714429  0.71243026    -0.72600
O1451       O  0.45367193  0.67049759  0.70457770    -0.72500
O1452       O  0.51838686  0.79301824  0.69998766    -0.72500
O1453       O  0.50427333  0.80455610  0.63169508    -0.72400
O1454       O  0.46025543  0.66774998  0.63299426    -0.72400
O1455       O  0.43594796  0.76757564  0.64283020    -0.72400
O1456       O  0.52887569  0.70375325  0.62741742    -0.72600
V1457       V  0.48616827  0.73191444  0.70278309     1.35200
V1458       V  0.48235572  0.73586553  0.63473453     1.35200
C1459       C  0.54325760  0.68409271  0.66132988     0.76900
C1460       C  0.42599674  0.78323434  0.68157986     0.76900
C1461       C  0.44555213  0.64885669  0.66788025     0.76800
C1462       C  0.52306123  0.81833706  0.66335300     0.76700
O1463       O  0.69583784  0.60115034  0.54130723    -0.72400
O1464       O  0.75500223  0.69030684  0.94766550    -0.72600
O1465       O  0.71839313  0.59359220  0.94789004    -0.72500
O1466       O  0.73363542  0.69985789  0.53346358    -0.72500
O1467       O  0.78078591  0.65559115  0.54919528    -0.72400
O1468       O  0.76530784  0.54774426  0.96172375    -0.69200
O1469       O  0.80325859  0.64597077  0.95804254    -0.72400
O1470       O  0.74443832  0.55888063  0.55437516    -0.72600
V1471       V  0.72115597  0.64121004  0.49460657     1.35200
V1472       V  0.76782975  0.60097484  0.50790098     1.35200
C1473       C  0.71128271  0.56399170  0.56217329     0.76900
C1474       C  0.78810045  0.68480690  0.93903310     0.76900
C1475       C  0.73580409  0.55062593  0.94291966     0.76800
C1476       C  0.76311629  0.69859516  0.55253999     0.76700
O1477       O  0.26611954  0.70036961  0.77354440    -0.72400
O1478       O  0.28421016  0.57870273  0.69725621    -0.72600
O1479       O  0.24784257  0.67380448  0.69213698    -0.72500
O1480       O  0.30396945  0.60203149  0.77855846    -0.72500
O1481       O  0.25646470  0.56165752  0.80574023    -0.72400
O1482       O  0.19984773  0.63711845  0.72147014    -0.72400
O1483       O  0.23643458  0.53808446  0.72401330    -0.72400
O1484       O  0.22080608  0.65690729  0.80338271    -0.72600
V1485       V  0.27474329  0.63790742  0.73617112     1.35200
V1486       V  0.22922658  0.59911476  0.76276923     1.35200
C1487       C  0.23842482  0.70068385  0.79919278     0.76900
C1488       C  0.26472188  0.53647560  0.69964118     0.76900
C1489       C  0.21410350  0.67131790  0.69423763     0.76800
C1490       C  0.29010361  0.56753555  0.80573752     0.76700
O1491       O  0.79891206  0.86109457  0.70113169    -0.72400
O1492       O  0.75594329  0.94358890  0.79605572    -0.72600
O1493       O  0.79951689  0.85707235  0.78975847    -0.72500
O1494       O  0.75551798  0.94832277  0.70548851    -0.72500
O1495       O  0.71217209  0.88950552  0.70650244    -0.72400
O1496       O  0.75481271  0.80068851  0.79327785    -0.72400
O1497       O  0.71087645  0.88777975  0.79439250    -0.72400
O1498       O  0.75503898  0.80291522  0.70272597    -0.72600
V1499       V  0.77679472  0.90116747  0.74816642     1.35200
V1500       V  0.73401679  0.84658378  0.74927104     1.35200
C1501       C  0.78410591  0.81938118  0.68467593     0.76900
C1502       C  0.72568226  0.92859379  0.81196515     0.76900
C1503       C  0.78519060  0.81439814  0.80670571     0.76800
C1504       C  0.72588930  0.93328617  0.69071934     0.76700
C1505       C  0.36047459  0.78273920  0.67218164    -0.26900
C1506       C  0.39018906  0.80511484  0.69223326    -0.15000
C1507       C  0.38424117  0.84305613  0.72677508     0.35600
C1508       C  0.35022812  0.86561566  0.73390904    -0.26400
C1509       C  0.32384238  0.85488312  0.70319987    -0.15600
C1510       C  0.32668994  0.80472185  0.68079303     0.36700
N1511       N  0.29551235  0.77450520  0.66975793    -0.89900
H1512       H  0.36321762  0.74719039  0.65136763     0.17800
H1513       H  0.34765569  0.90040707  0.75562015     0.17800
N1514       N  0.41313833  0.86207075  0.75215061    -0.88900
H1515       H  0.29615583  0.73865471  0.68781905     0.35200
H1516       H  0.29781760  0.76381567  0.63624167     0.40300
H1517       H  0.40625564  0.85469274  0.78549969     0.39900
H1518       H  0.41561818  0.90380509  0.74727833     0.34800
C1519       C  0.41209285  0.58501115  0.62028508    -0.26900
C1520       C  0.41751894  0.60618729  0.66312649    -0.15000
C1521       C  0.39358734  0.59066051  0.69814589     0.35600
C1522       C  0.36551531  0.55412567  0.68989485    -0.26400
C1523       C  0.36040017  0.53345313  0.64704573    -0.15600
C1524       C  0.38403764  0.54865225  0.61232358     0.36700
N1525       N  0.38028255  0.52536113  0.56930599    -0.89900
H1526       H  0.42987053  0.59633450  0.59257089     0.17800
H1527       H  0.34821218  0.54045346  0.71734587     0.17800
N1528       N  0.39748427  0.61183988  0.74189398    -0.88900
H1529       H  0.40885605  0.98829416  0.56555054     0.35200
H1530       H  0.38390888  0.03780089  0.54454622     0.40300
H1531       H  0.40050172  0.57936989  0.76349077     0.39900
H1532       H  0.37398081  0.63158942  0.75143281     0.34800
C1533       C  0.63051748  0.61720937  0.62308126    -0.26900
C1534       C  0.64161876  0.59479169  0.66322278    -0.15000
C1535       C  0.62451176  0.61221133  0.70276451     0.35600
C1536       C  0.59385156  0.64411748  0.70131090    -0.26400
C1537       C  0.57946005  0.65921205  0.66064560    -0.15600
C1538       C  0.59984372  0.64874813  0.62139686     0.36700
N1539       N  0.58915280  0.66682470  0.57906021    -0.89900
H1540       H  0.64244067  0.60412290  0.59195633     0.17800
H1541       H  0.58011755  0.65424145  0.73239246     0.17800
N1542       N  0.63629041  0.59341764  0.74442443    -0.88900
H1543       H  0.58748671  0.70897388  0.57971012     0.35200
H1544       H  0.56410105  0.64998783  0.57301993     0.40300
H1545       H  0.62427637  0.09591792  0.75594492     0.39900
H1546       H  0.65192577  0.14938461  0.74622063     0.34800
C1547       C  0.61656262  0.87407679  0.65914873    -0.26900
C1548       C  0.61707952  0.91266002  0.62408542    -0.15000
C1549       C  0.58400214  0.92427927  0.60591357     0.35600
C1550       C  0.55292131  0.89460593  0.61979964    -0.26400
C1551       C  0.55360759  0.85580813  0.65413211    -0.15600
C1552       C  0.58599834  0.84585820  0.67360947     0.36700
N1553       N  0.58842761  0.80609787  0.70789342    -0.89900
H1554       H  0.63945089  0.86737771  0.67882644     0.17800
H1555       H  0.52802663  0.90266227  0.60427646     0.17800
N1556       N  0.58140388  0.96900317  0.57622517    -0.88900
H1557       H  0.59812623  0.82512298  0.73602313     0.35200
H1558       H  0.60687884  0.77717023  0.69716244     0.40300
H1559       H  0.57483228  0.50239086  0.55925662     0.39900
H1560       H  0.56376987  0.99674131  0.59079781     0.34800
C1561       C  0.05490990  0.83480442  0.65510137    -0.26900
C1562       C  0.06206865  0.88512910  0.63432612    -0.15000
C1563       C  0.09655684  0.90747018  0.63742645     0.35600
C1564       C  0.12351770  0.87753561  0.65637570    -0.26400
C1565       C  0.11885148  0.82181894  0.66555833    -0.15600
C1566       C  0.08296665  0.80319560  0.67090687     0.36700
N1567       N  0.07530392  0.75119660  0.69022711    -0.89900
H1568       H  0.02775077  0.81932530  0.65794059     0.17800
H1569       H  0.14879788  0.89780463  0.66092850     0.17800
N1570       N  0.10440034  0.96113442  0.62188239    -0.88900
H1571       H  0.05850001  0.75682184  0.71824373     0.35200
H1572       H  0.06125435  0.72792665  0.66762666     0.40300
H1573       H  0.12459001  0.95888342  0.59709241     0.39900
H1574       H  0.11452156  0.98322141  0.64819401     0.34800
C1575       C  0.09160109  0.60085278  0.56393014    -0.26900
C1576       C  0.07579024  0.58406596  0.60507765    -0.15000
C1577       C  0.09335589  0.59661084  0.64383161     0.35600
C1578       C  0.12499226  0.62793015  0.64128117    -0.26400
C1579       C  0.13857914  0.64977433  0.60052197    -0.15600
C1580       C  0.12239223  0.63365405  0.56123342     0.36700
N1581       N  0.13481797  0.65327542  0.51841418    -0.89900
H1582       H  0.07919169  0.59040569  0.53321735     0.17800
H1583       H  0.13640919  0.64059003  0.67193724     0.17800
N1584       N  0.07811821  0.57998111  0.68589841    -0.88900
H1585       H  0.14164784  0.61966906  0.49901831     0.35200
H1586       H  0.15824121  0.67631602  0.52075868     0.40300
H1587       H  0.07244217  0.61458977  0.70458263     0.39900
H1588       H  0.09686936  0.55695833  0.70182461     0.34800
C1589       C  0.86282339  0.65198339  0.56681011    -0.26900
C1590       C  0.86125975  0.68729596  0.60338773    -0.15000
C1591       C  0.88847435  0.68532233  0.63396655     0.35600
C1592       C  0.91617181  0.64844095  0.62772711    -0.26400
C1593       C  0.91763733  0.61242776  0.59134106    -0.15600
C1594       C  0.88963957  0.61294446  0.56163444     0.36700
N1595       N  0.88788263  0.57345913  0.52696226    -0.89900
H1596       H  0.84411739  0.65634083  0.54090042     0.17800
H1597       H  0.93689020  0.64812574  0.65171305     0.17800
N1598       N  0.88931648  0.72198859  0.67069415    -0.88900
H1599       H  0.86401642  0.57750179  0.51064841     0.35200
H1600       H  0.88626340  0.53535477  0.54173247     0.40300
H1601       H  0.86523321  0.71776608  0.68908565     0.39900
H1602       H  0.89105640  0.76149340  0.65842286     0.34800
C1603       C  0.87298899  0.85934351  0.51666669    -0.26900
C1604       C  0.84080817  0.86989020  0.54009169    -0.15000
C1605       C  0.84002679  0.92185375  0.56003122     0.35600
C1606       C  0.87105495  0.94081724  0.58014973    -0.26400
C1607       C  0.90388103  0.91653210  0.56968211    -0.15600
C1608       C  0.90505992  0.87980448  0.53326667     0.36700
N1609       N  0.93831996  0.86139810  0.51431736    -0.89900
H1610       H  0.87423753  0.82564964  0.49375802     0.17800
H1611       H  0.86971848  0.97520444  0.60237712     0.17800
N1612       N  0.80718645  0.95014506  0.56713775    -0.88900
H1613       H  0.93934877  0.87129937  0.48061115     0.35200
H1614       H  0.93869215  0.81926375  0.51695681     0.40300
H1615       H  0.78667822  0.92920993  0.55165643     0.39900
H1616       H  0.81010722  0.98744216  0.55105584     0.34800
C1617       C  0.42820308  0.89810119  0.92840672    -0.26900
C1618       C  0.45014043  0.87995155  0.89367481    -0.15000
C1619       C  0.44804807  0.90537536  0.85136359     0.35600
C1620       C  0.42010109  0.94196775  0.84351886    -0.26400
C1621       C  0.39558866  0.95549449  0.87765304    -0.15600
C1622       C  0.40190802  0.93579653  0.92141431     0.36700
N1623       N  0.38021946  0.95218405  0.95919766    -0.89900
H1624       H  0.43043187  0.88148020  0.96137792     0.17800
H1625       H  0.41725114  0.95930935  0.81100458     0.17800
N1626       N  0.47400077  0.89374543  0.81649080    -0.88900
H1627       H  0.36818013  0.91775056  0.97370750     0.35200
H1628       H  0.39688800  0.96984552  0.98225472     0.40300
H1629       H  0.49884805  0.90681083  0.82722368     0.39900
H1630       H  0.46935198  0.91668069  0.78831713     0.34800
C1631       C  0.38527462  0.67578058  0.87721909    -0.26900
C1632       C  0.40849273  0.67350453  0.91239907    -0.15000
C1633       C  0.39411273  0.65409571  0.95402033     0.35600
C1634       C  0.36027881  0.62884925  0.95696122    -0.26400
C1635       C  0.34115820  0.61951580  0.91875715    -0.15600
C1636       C  0.35066749  0.65223972  0.88154007     0.36700
N1637       N  0.32531769  0.66069332  0.84825262    -0.89900
H1638       H  0.39384156  0.69612667  0.84677138     0.17800
H1639       H  0.35239960  0.60740999  0.98719683     0.17800
N1640       N  0.41436335  0.65712992  0.99319881    -0.88900
H1641       H  0.33605784  0.68640479  0.82349922     0.35200
H1642       H  0.30365271  0.68071788  0.86320155     0.40300
H1643       H  0.41907427  0.61789071  0.00385542     0.39900
H1644       H  0.39920966  0.67693564  0.01789583     0.34800
C1645       C  0.57236066  0.57903961  0.87571007    -0.26900
C1646       C  0.57323507  0.61910294  0.90899052    -0.15000
C1647       C  0.60515276  0.62645310  0.93146124     0.35600
C1648       C  0.63419830  0.59235635  0.92244990    -0.26400
C1649       C  0.63321674  0.55169714  0.89007964    -0.15600
C1650       C  0.60150380  0.54498171  0.86674404     0.36700
N1651       N  0.59776080  0.50236232  0.83498984    -0.89900
H1652       H  0.54862169  0.57369631  0.85679103     0.17800
H1653       H  0.65672458  0.59594569  0.94311598     0.17800
N1654       N  0.60902472  0.66974489  0.96238663    -0.88900
H1655       H  0.60461001  0.97596268  0.83392221     0.35200
H1656       H  0.62895444  0.02227169  0.80426794     0.40300
H1657       H  0.62936886  0.69532730  0.94983210     0.39900
H1658       H  0.61864444  0.65315187  0.99117971     0.34800
C1659       C  0.63093285  0.79836181  0.91509587    -0.26900
C1660       C  0.59892664  0.82024912  0.93160962    -0.15000
C1661       C  0.60055493  0.85870882  0.96668482     0.35600
C1662       C  0.63365030  0.88112223  0.97798842    -0.26400
C1663       C  0.66374780  0.87065769  0.95057788    -0.15600
C1664       C  0.66347048  0.81943272  0.92926804     0.36700
N1665       N  0.69557840  0.78974819  0.92062014    -0.89900
H1666       H  0.63063033  0.76328296  0.89357761     0.17800
H1667       H  0.63379770  0.91624221  0.99945727     0.17800
N1668       N  0.56866177  0.87813642  0.98856375    -0.88900
H1669       H  0.69263268  0.75278794  0.93724320     0.35200
H1670       H  0.71700348  0.81003410  0.93476039     0.40300
H1671       H  0.56791940  0.92006520  0.98439292     0.39900
H1672       H  0.57003066  0.87013902  0.02240856     0.34800
C1673       C  0.13750692  0.86729390  0.77586878    -0.26900
C1674       C  0.16823652  0.88016654  0.79924685    -0.15000
C1675       C  0.16899204  0.93275656  0.81806254     0.35600
C1676       C  0.13673205  0.95757601  0.83123332    -0.26400
C1677       C  0.10412273  0.93447195  0.81953087    -0.15600
C1678       C  0.10494163  0.89187566  0.78814802     0.36700
N1679       N  0.07247159  0.87143056  0.77074861    -0.89900
H1680       H  0.13668611  0.83026139  0.75676608     0.17800
H1681       H  0.13725344  0.99577260  0.84883629     0.17800
N1682       N  0.20205591  0.96192955  0.82134786    -0.88900
H1683       H  0.07056838  0.82991271  0.77708140     0.35200
H1684       H  0.07389196  0.87750843  0.73656709     0.40300
H1685       H  0.20090272  0.99582442  0.80084947     0.39900
H1686       H  0.20383767  0.97633637  0.85378288     0.34800
C1687       C  0.08595827  0.66345223  0.88442018    -0.26900
C1688       C  0.08546241  0.63218151  0.84522418    -0.15000
C1689       C  0.11452436  0.63695572  0.81461226     0.35600
C1690       C  0.14224072  0.67388149  0.82258964    -0.26400
C1691       C  0.14346656  0.70314032  0.86242848    -0.15600
C1692       C  0.11460463  0.69846646  0.89316822     0.36700
N1693       N  0.11351459  0.73135447  0.93226278    -0.89900
H1694       H  0.06399156  0.66063739  0.90876641     0.17800
H1695       H  0.16143812  0.68242844  0.79591385     0.17800
N1696       N  0.11644630  0.60440022  0.77555868    -0.88900
H1697       H  0.11091313  0.70577047  0.95978820     0.35200
H1698       H  0.09073364  0.75509403  0.93175965     0.40300
H1699       H  0.13923659  0.58076257  0.77680559     0.39900
H1700       H  0.12020056  0.63065263  0.74864972     0.34800
C1701       C  0.90978922  0.60181261  0.80825582    -0.26900
C1702       C  0.92429613  0.59020596  0.84965409    -0.15000
C1703       C  0.90447805  0.60406694  0.88819094     0.35600
C1704       C  0.87299515  0.63369241  0.88506842    -0.26400
C1705       C  0.86130103  0.65214113  0.84380289    -0.15600
C1706       C  0.87864683  0.63251634  0.80506360     0.36700
N1707       N  0.86641082  0.64824357  0.76256744    -0.89900
H1708       H  0.92364422  0.58910549  0.77794767     0.17800
H1709       H  0.86104126  0.64908733  0.91547168     0.17800
N1710       N  0.91698789  0.59027285  0.93071362    -0.88900
H1711       H  0.88229957  0.63125876  0.73710213     0.35200
H1712       H  0.84076073  0.63185997  0.75967076     0.40300
H1713       H  0.89755460  0.56533977  0.94618031     0.39900
H1714       H  0.91954611  0.62582804  0.94917340     0.34800
C1715       C  0.95200160  0.84371475  0.87939432    -0.26900
C1716       C  0.94409371  0.89675241  0.86700361    -0.15000
C1717       C  0.91060575  0.91717206  0.88053521     0.35600
C1718       C  0.88421788  0.88254901  0.89931598    -0.26400
C1719       C  0.88916113  0.82628686  0.90044412    -0.15600
C1720       C  0.92501752  0.80870911  0.89738067     0.36700
N1721       N  0.93348096  0.75500798  0.91126302    -0.89900
H1722       H  0.97914260  0.82974325  0.87517425     0.17800
H1723       H  0.85846648  0.89921497  0.90858927     0.17800
N1724       N  0.90336580  0.97342083  0.87591290    -0.88900
H1725       H  0.92732034  0.75233510  0.94528243     0.35200
H1726       H  0.96084063  0.74839579  0.90692143     0.40300
H1727       H  0.89634242  0.98842263  0.90736738     0.39900
H1728       H  0.88131138  0.97713346  0.85611098     0.34800
loop_ 
_geom_bond_atom_site_label_1 
_geom_bond_atom_site_label_2 
_geom_bond_distance 
_geom_bond_site_symmetry_2 
_ccdc_geom_bond_type 
O1            V9   1.939       .  S
O1           C11   1.278       .  A
O2          V873   1.939   1_655  S
O2           C12   1.278       .  A
O3            V9   1.877   1_655  S
O3           C13   1.257       .  A
O4          V873   1.867       .  S
O4           C14   1.254       .  A
O5           V10   1.942       .  S
O5           C14   1.278       .  A
O6          V874   1.942   1_655  S
O6           C13   1.281       .  A
O7           V10   1.869   1_655  S
O7           C12   1.252       .  A
O8          V874   1.857       .  S
O8           C11   1.251       .  A
V9          O866   1.939   1_445  S
V9          O868   1.873   1_545  S
V9          V874   2.062       .  T
V10         O870   1.941   1_455  S
V10         O872   1.859       .  S
V10         V873   2.063       .  T
C11         C392   1.470       .  S
C12         C420   1.474       .  S
C13         C406   1.501       .  S
C14         C381   1.485       .  S
C15          C16   1.516       .  S
C15          C21   1.532       .  S
C15          C19   1.544       .  S
C15         C378   1.552       .  S
C16          H23   1.078       .  S
C16          C17   1.353       .  D
C17          C18   1.562       .  S
C17          C88   1.482       .  S
C18          C22   1.555       .  S
C18          C20   1.560       .  S
C18          H24   1.110       .  S
C19          H25   1.086       .  S
C19          C20   1.384       .  D
C20         C191   1.493       .  S
C21          H26   1.084       .  S
C21          C22   1.356       .  D
C22         C395   1.497       .  S
C27          C28   1.516       .  S
C27          C33   1.534       .  S
C27          C31   1.552       .  S
C27         C423   1.548       .  S
C28          H35   1.083       .  S
C28          C29   1.357       .  D
C29          C30   1.592       .  S
C29         C207   1.520       .  S
C30          C34   1.561       .  S
C30          C32   1.561       .  S
C30          H36   1.110       .  S
C31          H37   1.084       .  S
C31          C32   1.383       .  D
C32         C178   1.515       .  S
C33          H38   1.083       .  S
C33          C34   1.354       .  D
C34         C409   1.502       .  S
C39          C40   1.513       .  S
C39          C45   1.541       .  S
C39          C43   1.546       .  S
C39         C367   1.544       .  S
C40          H47   1.081       .  S
C40          C41   1.350       .  D
C41         C906   1.575       .  S
C41         C206   1.494       .  S
C42          C46   1.559       .  S
C42          C44   1.557       .  S
C42         C905   1.572       .  S
C42          H48   1.110   1_565  S
C43          H49   1.086       .  S
C43         C908   1.383       .  D
C44         C907   1.383       .  D
C44         C179   1.495   1_565  S
C45          H50   1.085       .  S
C45         C910   1.350       .  D
C46         C909   1.351       .  D
C46         C353   1.494   1_565  S
O51          V59   1.855       .  S
O51          C61   1.251       .  A
O52          V59   1.842       .  S
O52          C62   1.247       .  A
O53          V59   1.934       .  S
O53          C63   1.280       .  A
O54          V59   1.939       .  S
O54          C64   1.278       .  A
O55          V60   1.883       .  S
O55          C64   1.257       .  A
O56          V60   1.881       .  S
O56          C63   1.255       .  A
O57          V60   1.953       .  S
O57          C62   1.282       .  A
O58          V60   1.962       .  S
O58          C61   1.283       .  A
V59          V60   2.063       .  T
C61         C336   1.506       .  S
C62         C364   1.481       .  S
C63         C322   1.495       .  S
C64         C350   1.498       .  S
C65          C66   1.503       .  S
C65          C71   1.520       .  S
C65          C69   1.565       .  S
C65         C325   1.550       .  S
C66          H73   1.089       .  S
C66          C67   1.349       .  D
C67         C932   1.591       .  S
C67          C89   1.525       .  S
C68          C72   1.554       .  S
C68          C70   1.576       .  S
C68         C931   1.590   1_545  S
C68          H74   1.110       .  S
C69          H75   1.085       .  S
C69         C934   1.404       .  D
C70         C933   1.407       .  D
C70         C194   1.527       .  S
C71          H76   1.089       .  S
C71         C936   1.356       .  D
C72         C935   1.355       .  D
C72         C339   1.500       .  S
O77         V517   1.885   1_554  S
O77          C87   1.266       .  A
O78          V85   1.918       .  S
O78          C88   1.262       .  A
O79          V85   1.892       .  S
O79          C89   1.275       .  A
O80         V517   1.942   1_554  S
O80          C90   1.266       .  A
O81         V518   1.896       .  S
O81          C90   1.274       .  A
O82          V86   1.948       .  S
O82          C89   1.267       .  A
O83          V86   1.887       .  S
O83          C88   1.268       .  A
O84         V518   1.917       .  S
O84          C87   1.263       .  A
V85         O509   1.895       .  S
V85         O512   1.937       .  S
V85          V86   2.080       .  T
V86         O513   1.902       .  S
V86         O516   1.914       .  S
C87         C148   1.475       .  S
C90         C112   1.517       .  S
O91         V963   1.878   1_455  S
O91         C101   1.254       .  A
O92          V99   1.875   1_545  S
O92         C102   1.255       .  A
O93         V963   1.938       .  S
O93         C103   1.279       .  A
O94          V99   1.947   1_445  S
O94         C104   1.281       .  A
O95         V100   1.852       .  S
O95         C104   1.252       .  A
O96         V964   1.861   1_655  S
O96         C103   1.252       .  A
O97         V100   1.942   1_655  S
O97         C102   1.281       .  A
O98         V964   1.944       .  S
O98         C101   1.280       .  A
V99         O955   1.877   1_655  S
V99         O957   1.942       .  S
V99         V100   2.057   1_665  T
V100        O960   1.857   1_445  S
V100        O962   1.940   1_545  S
C101        C266   1.485       .  S
C102        C297   1.494       .  S
C103        C311   1.477       .  S
C104        C280   1.488       .  S
C105        C106   1.536       .  S
C105        C111   1.517       .  S
C105        C109   1.558       .  S
C105        C269   1.557       .  S
C106        H113   1.084       .  S
C106        C107   1.354       .  D
C107        C108   1.549       .  S
C107        C283   1.496       .  S
C108        C112   1.587       .  S
C108        C110   1.556       .  S
C108        H114   1.110       .  S
C109        H115   1.084       .  S
C109        C110   1.390       .  D
C110        C193   1.517       .  S
C111        H116   1.082       .  S
C111        C112   1.355       .  D
C117        C118   1.540       .  S
C117        C123   1.519       .  S
C117        C121   1.538       .  S
C117        C308   1.542       .  S
C118        H125   1.086       .  S
C118        C119   1.352       .  D
C119        C120   1.557       .  S
C119        C294   1.491       .  S
C120        C124   1.575       .  S
C120        C122   1.560       .  S
C120        H126   1.110       .  S
C121        H127   1.086       .  S
C121        C122   1.378       .  D
C122        C180   1.492       .  S
C123        H128   1.081       .  S
C123        C124   1.350       .  D
C124        C205   1.498       .  S
C129        C130   1.536       .  S
C129        C135   1.515       .  S
C129        C133   1.554       .  S
C129        C252   1.554       .  S
C130        H137   1.086       .  S
C130        C995   1.356       .  D
C131        C132   1.557       .  S
C131        C994   1.358       .  D
C131        C238   1.493       .  S
C132        C134   1.564       .  S
C132       C1000   1.587   1_545  S
C132        H138   1.110       .  S
C133        H139   1.084       .  S
C133        C998   1.386       .  D
C134        C997   1.377   1_545  D
C134        C177   1.505       .  S
C135        H140   1.079       .  S
C135        C136   1.351       .  D
C136        C996   1.593       .  S
C136        C208   1.526       .  S
C141        C142   1.538       .  S
C141        C147   1.509       .  S
C141        C145   1.551       .  S
C141        C213   1.542       .  S
C142        H149   1.087       .  S
C142       C1007   1.350       .  D
C143        C144   1.548   1_565  S
C143       C1006   1.351       .  D
C143        C227   1.493   1_565  S
C144        C146   1.549       .  S
C144       C1012   1.570   1_545  S
C144        H150   1.110       .  S
C145        H151   1.086       .  S
C145       C1010   1.387       .  D
C146       C1009   1.386   1_545  D
C146        C192   1.489       .  S
C147        H152   1.074       .  S
C147        C148   1.348       .  D
C148       C1008   1.559       .  S
O153        V161   1.876       .  S
O153        C163   1.258       .  A
O154        V161   1.874       .  S
O154        C164   1.256       .  A
O155        V161   1.951       .  S
O155        C165   1.280       .  A
O156        V161   1.942       .  S
O156        C166   1.279       .  A
O157        V162   1.868       .  S
O157        C166   1.252       .  A
O158        V162   1.860       .  S
O158        C165   1.254       .  A
O159        V162   1.926       .  S
O159        C164   1.276       .  A
O160        V162   1.931       .  S
O160        C163   1.277       .  A
V161        V162   2.060       .  T
C163        C241   1.496       .  S
C164        C210   1.480       .  S
C165        C224   1.494       .  S
C166        C255   1.478       .  S
O167        V175   1.918   1_554  S
O167        C177   1.271       .  A
O168        V607   1.929       .  S
O168        C178   1.268       .  A
O169        V607   1.905       .  S
O169        C179   1.263       .  A
O170        V175   1.922   1_554  S
O170        C180   1.268       .  A
O171        V176   1.905       .  S
O171        C180   1.263       .  A
O172        V608   1.923       .  S
O172        C179   1.268       .  A
O173        V608   1.930       .  S
O173        C178   1.272       .  A
O174        V176   1.924       .  S
O174        C177   1.266       .  A
V175        O600   1.923       .  S
V175        O601   1.910       .  S
V175        V176   2.082   1_556  T
V176        O604   1.923   1_554  S
V176        O605   1.929   1_554  S
O181        V189   1.932       .  S
O181        C191   1.271       .  A
O182        V189   1.912       .  S
O182        C192   1.267       .  A
O183        V189   1.923       .  S
O183        C193   1.265       .  A
O184        V189   1.937       .  S
O184        C194   1.273       .  A
O185        V190   1.940       .  S
O185        C194   1.273       .  A
O186        V190   1.936       .  S
O186        C193   1.275       .  A
O187        V190   1.909       .  S
O187        C192   1.264       .  A
O188        V190   1.891       .  S
O188        C191   1.258       .  A
V189        V190   2.078       .  T
O195        V203   1.900       .  S
O195        C205   1.272       .  A
O196        V203   1.927       .  S
O196        C206   1.264       .  A
O197        V203   1.899       .  S
O197        C207   1.275       .  A
O198        V203   1.946       .  S
O198        C208   1.266       .  A
O199        V204   1.896       .  S
O199        C208   1.276       .  A
O200        V204   1.941       .  S
O200        C207   1.265       .  A
O201        V204   1.897       .  S
O201        C206   1.271       .  A
O202        V204   1.928       .  S
O202        C205   1.264       .  A
V203        V204   2.080       .  T
C209        C210   1.395       .  A
C209        C214   1.401       .  A
C209        H216   1.084       .  S
C210        C211   1.417       .  A
C211        C212   1.408       .  A
C211        N218   1.427       .  S
C212        C213   1.405       .  A
C212        H217   1.084       .  S
C213        C214   1.421       .  A
C214        N215   1.432       .  S
N215        H219   1.044       .  S
N215        H220   1.046       .  S
N218        H221   1.044       .  S
N218        H222   1.046       .  S
C223        C224   1.415       .  A
C223        C228   1.403       .  A
C223        H230   1.084       .  S
C224        C225   1.408       .  A
C225        C226   1.412       .  A
C225        N232   1.432       .  S
C226        C227   1.413       .  A
C226        H231   1.078       .  S
C227        C228   1.400       .  A
C228        N229   1.432       .  S
N229       H1097   1.046   1_545  S
N229       H1098   1.044       .  S
N232        H235   1.046       .  S
N232        H236   1.046       .  S
H233       N1093   1.046       .  S
H234       N1093   1.042       .  S
C237        C238   1.411       .  A
C237        C242   1.401       .  A
C237        H244   1.072       .  S
C238        C239   1.403       .  A
C239        C240   1.407       .  A
C239        N246   1.430       .  S
C240        C241   1.414       .  A
C240        H245   1.083       .  S
C241        C242   1.411       .  A
C242        N243   1.430       .  S
N243        H247   1.044       .  S
N243        H248   1.045       .  S
N246       H1113   1.044       .  S
N246       H1114   1.045       .  S
H249       N1110   1.044       .  S
H250       N1110   1.045       .  S
C251        C252   1.407       .  A
C251        C256   1.402       .  A
C251        H258   1.082       .  S
C252        C253   1.418       .  A
C253        C254   1.416       .  A
C253        N260   1.437       .  S
C254        C255   1.408       .  A
C254        H259   1.083       .  S
C255        C256   1.408       .  A
C256        N257   1.435       .  S
N257        H261   1.045       .  S
N257        H262   1.046       .  S
N260        H264   1.045       .  S
N260       H1127   1.045       .  S
H263       N1124   1.046       .  S
C265        C266   1.406       .  A
C265        C270   1.415       .  A
C265        H272   1.083       .  S
C266        C267   1.408       .  A
C267        C268   1.404       .  A
C267        N274   1.429       .  S
C268        C269   1.409       .  A
C268        H273   1.082       .  S
C269        C270   1.420       .  A
C270        N271   1.433       .  S
N271        H275   1.045       .  S
N271        H276   1.046       .  S
N274        H277   1.046       .  S
N274        H278   1.045       .  S
C279        C280   1.417       .  A
C279        C284   1.401       .  A
C279        H286   1.084       .  S
C280        C281   1.398       .  A
C281        C282   1.404       .  A
C281        N288   1.432       .  S
C282        C283   1.422       .  A
C282        H287   1.076       .  S
C283        C284   1.405       .  A
C284        N285   1.438       .  S
N285        H289   1.046       .  S
N285        H290   1.045       .  S
N288        H291   1.046       .  S
N288        H292   1.046       .  S
C293        C294   1.405       .  A
C293        C298   1.406       .  A
C293        H300   1.076       .  S
C294        C295   1.412       .  A
C295        C296   1.408       .  A
C295        N302   1.433       .  S
C296        C297   1.413       .  A
C296        H301   1.084       .  S
C297        C298   1.403       .  A
C298        N299   1.426       .  S
N299        H303   1.037       .  S
N299        H304   1.046       .  S
N302        H305   1.045       .  S
N302        H306   1.045       .  S
C307        C308   1.403       .  A
C307        C312   1.405       .  A
C307        H314   1.084       .  S
C308        C309   1.416       .  A
C309        C310   1.402       .  A
C309        N316   1.436       .  S
C310        C311   1.403       .  A
C310        H315   1.084       .  S
C311        C312   1.420       .  A
C312        N313   1.432       .  S
N313        H317   1.045   1_554  S
N313        H318   1.046       .  S
N316        H319   1.046       .  S
N316        H320   1.045       .  S
C321        C322   1.386       .  A
C321        C326   1.393       .  A
C321        H328   1.084       .  S
C322        C323   1.428       .  A
C323        C324   1.425       .  A
C323        N330   1.437       .  S
C324        C325   1.401       .  A
C324        H329   1.083       .  S
C325        C326   1.438       .  A
C326        N327   1.436       .  S
N327        H331   1.046       .  S
N327        H332   1.046       .  S
N330        H333   1.046       .  S
N330        H334   1.045       .  S
C335        C336   1.404       .  A
C335        C340   1.419       .  A
C335        H342   1.083       .  S
C336        C337   1.429       .  A
C337        C338   1.406       .  A
C337        N344   1.433       .  S
C338        C339   1.400       .  A
C338        H343   1.084       .  S
C339        C340   1.414       .  A
C340        N341   1.430       .  S
N341        H345   1.046       .  S
N341        H346   1.046       .  S
N344        H347   1.044       .  S
N344        H348   1.046       .  S
C349        C350   1.413       .  A
C349        C354   1.408       .  A
C349        H356   1.084       .  S
C350        C351   1.412       .  A
C351        C352   1.410       .  A
C351        N358   1.436       .  S
C352        C353   1.406       .  A
C352        H357   1.076       .  S
C353        C354   1.412       .  A
C354        N355   1.433       .  S
N355       H1223   1.045   1_545  S
N355       H1224   1.044       .  S
N358        H361   1.044       .  S
N358        H362   1.046       .  S
H359       N1219   1.046       .  S
H360       N1219   1.045       .  S
C363        C364   1.402       .  A
C363        C368   1.405       .  A
C363        H370   1.084       .  S
C364        C365   1.426       .  A
C365        C366   1.406       .  A
C365        N372   1.433       .  S
C366        C367   1.400       .  A
C366        H371   1.084       .  S
C367        C368   1.419       .  A
C368        N369   1.435       .  S
N369        H373   1.045       .  S
N369        H374   1.046       .  S
N372        H375   1.046       .  S
N372        H376   1.045       .  S
C377        C378   1.408       .  A
C377        C382   1.407       .  A
C377        H384   1.083       .  S
C378        C379   1.415       .  A
C379        C380   1.408       .  A
C379        N386   1.434       .  S
C380        C381   1.403       .  A
C380        H385   1.081       .  S
C381        C382   1.416       .  A
C382        N383   1.432       .  S
N383        H387   1.046       .  S
N383        H388   1.043       .  S
N386        H389   1.045       .  S
N386        H390   1.046       .  S
C391        C392   1.403       .  A
C391        C396   1.410       .  A
C391        H398   1.081       .  S
C392        C393   1.411       .  A
C393        C394   1.404       .  A
C393        N400   1.439       .  S
C394        C395   1.410       .  A
C394        H399   1.084       .  S
C395        C396   1.407       .  A
C396        N397   1.432       .  S
N397        H401   1.046       .  S
N397        H402   1.045       .  S
N400        H403   1.046       .  S
N400        H404   1.046       .  S
C405        C406   1.415       .  A
C405        C410   1.414       .  A
C405        H412   1.083       .  S
C406        C407   1.400       .  A
C407        C408   1.406       .  A
C407        N414   1.427       .  S
C408        C409   1.415       .  A
C408        H413   1.076       .  S
C409        C410   1.407       .  A
C410        N411   1.436       .  S
N411        H415   1.045       .  S
N411        H416   1.046       .  S
N414        H417   1.044       .  S
N414        H418   1.046       .  S
C419        C420   1.403       .  A
C419        C424   1.411       .  A
C419        H426   1.084       .  S
C420        C421   1.408       .  A
C421        C422   1.401       .  A
C421        N428   1.430       .  S
C422        C423   1.407       .  A
C422        H427   1.083       .  S
C423        C424   1.420       .  A
C424        N425   1.434       .  S
N425        H429   1.045       .  S
N425        H430   1.046       .  S
N428        H431   1.045       .  S
N428        H432   1.046       .  S
O433        V441   1.942       .  S
O433        C443   1.280       .  A
O434       V1305   1.935   1_655  S
O434        C444   1.278       .  A
O435        V441   1.866   1_655  S
O435        C445   1.254       .  A
O436       V1305   1.870       .  S
O436        C446   1.255       .  A
O437        V442   1.935       .  S
O437        C446   1.277       .  A
O438       V1306   1.942   1_655  S
O438        C445   1.281       .  A
O439        V442   1.875   1_655  S
O439        C444   1.253       .  A
O440       V1306   1.859       .  S
O440        C443   1.252       .  A
V441       O1298   1.941   1_445  S
V441       O1300   1.865   1_545  S
V441       V1306   2.060       .  T
V442       O1302   1.941   1_455  S
V442       O1304   1.861       .  S
V442       V1305   2.062       .  T
C443        C824   1.488       .  S
C444        C852   1.476       .  S
C445        C838   1.495       .  S
C446        C813   1.483       .  S
C447        C448   1.512       .  S
C447        C453   1.540       .  S
C447        C451   1.553       .  S
C447        C810   1.546       .  S
C448        H455   1.076       .  S
C448        C449   1.351       .  D
C449        C450   1.554       .  S
C449        C520   1.473       .  S
C450        C454   1.539       .  S
C450        C452   1.553       .  S
C450        H456   1.111       .  S
C451        H457   1.086       .  S
C451        C452   1.388       .  D
C452        C623   1.494       .  S
C453        H458   1.086       .  S
C453        C454   1.348       .  D
C454        C827   1.475       .  S
C459        C460   1.522       .  S
C459        C465   1.531       .  S
C459        C463   1.550       .  S
C459        C855   1.547       .  S
C460        H467   1.081       .  S
C460        C461   1.356       .  D
C461        C462   1.587       .  S
C461        C639   1.520       .  S
C462        C466   1.560       .  S
C462        C464   1.559       .  S
C462        H468   1.110       .  S
C463        H469   1.085       .  S
C463        C464   1.382       .  D
C464        C610   1.512       .  S
C465        H470   1.087       .  S
C465        C466   1.357       .  D
C466        C841   1.496       .  S
C471        C472   1.515       .  S
C471        C477   1.541       .  S
C471        C475   1.542       .  S
C471        C799   1.548       .  S
C472        H479   1.082       .  S
C472        C473   1.350       .  D
C473       C1338   1.573       .  S
C473        C638   1.493       .  S
C474       C1337   1.579   1_545  S
C474        C478   1.561       .  S
C474        C476   1.557       .  S
C474        H480   1.110       .  S
C475        H481   1.086       .  S
C475       C1340   1.382       .  D
C476       C1339   1.384   1_545  D
C476        C611   1.496       .  S
C477        H482   1.085       .  S
C477       C1342   1.349       .  D
C478       C1341   1.350   1_545  D
C478        C785   1.500       .  S
O483        V491   1.858       .  S
O483        C493   1.251       .  A
O484        V491   1.841       .  S
O484        C494   1.247       .  A
O485        V491   1.945       .  S
O485        C495   1.284       .  A
O486        V491   1.952       .  S
O486        C496   1.281       .  A
O487        V492   1.879       .  S
O487        C496   1.257       .  A
O488        V492   1.875       .  S
O488        C495   1.253       .  A
O489        V492   1.950       .  S
O489        C494   1.281       .  A
O490        V492   1.955       .  S
O490        C493   1.282       .  A
V491        V492   2.061       .  T
C493        C768   1.502       .  S
C494        C796   1.476       .  S
C495        C754   1.501       .  S
C496        C782   1.507       .  S
C497        C498   1.501       .  S
C497        C503   1.517       .  S
C497        C501   1.571       .  S
C497        C757   1.552       .  S
C498        H505   1.090       .  S
C498        C499   1.346       .  D
C499       C1364   1.586       .  S
C499        C521   1.517       .  S
C500       C1363   1.584   1_545  S
C500        C504   1.554       .  S
C500        C502   1.569       .  S
C500        H506   1.110       .  S
C501        H507   1.084       .  S
C501       C1366   1.408       .  D
C502       C1365   1.406       .  D
C502        C626   1.520       .  S
C503        H508   1.090       .  S
C503       C1368   1.354       .  D
C504       C1367   1.353       .  D
C504        C771   1.497       .  S
O509        C519   1.269       .  A
O510        V517   1.909       .  S
O510        C520   1.259       .  A
O511        V517   1.890       .  S
O511        C521   1.275       .  A
O512        C522   1.264       .  A
O513        C522   1.277       .  A
O514        V518   1.941   1_556  S
O514        C521   1.265       .  A
O515        V518   1.886   1_556  S
O515        C520   1.269       .  A
O516        C519   1.261       .  A
V517        V518   2.081   1_556  T
C519        C580   1.478       .  S
C522        C544   1.518       .  S
O523       V1395   1.886   1_455  S
O523        C533   1.256       .  A
O524        V531   1.873   1_545  S
O524        C534   1.255       .  A
O525       V1395   1.937       .  S
O525        C535   1.278       .  A
O526        V531   1.952   1_445  S
O526        C536   1.284       .  A
O527        V532   1.842   1_445  S
O527        C536   1.248       .  A
O528       V1396   1.861       .  S
O528        C535   1.252       .  A
O529        V532   1.948   1_545  S
O529        C534   1.282       .  A
O530       V1396   1.945   1_455  S
O530        C533   1.281       .  A
V531       O1387   1.886   1_655  S
V531       O1389   1.952       .  S
V531        V532   2.049       .  T
V532       O1392   1.852       .  S
V532       O1394   1.947   1_655  S
C533        C698   1.493       .  S
C534        C729   1.491       .  S
C535        C743   1.477       .  S
C536        C712   1.489       .  S
C537        C538   1.536       .  S
C537        C543   1.521       .  S
C537        C541   1.564       .  S
C537        C701   1.564       .  S
C538        H545   1.086       .  S
C538        C539   1.353       .  D
C539        C540   1.543       .  S
C539        C715   1.491       .  S
C540        C544   1.582       .  S
C540        C542   1.562       .  S
C540        H546   1.110       .  S
C541        H547   1.085       .  S
C541        C542   1.394       .  D
C542        C625   1.522       .  S
C543        H548   1.078       .  S
C543        C544   1.352       .  D
C549        C550   1.541       .  S
C549        C555   1.517       .  S
C549        C553   1.538       .  S
C549        C740   1.546       .  S
C550        H557   1.085       .  S
C550        C551   1.350       .  D
C551        C552   1.557       .  S
C551        C726   1.492       .  S
C552        C556   1.577       .  S
C552        C554   1.566       .  S
C552        H558   1.110       .  S
C553        H559   1.087       .  S
C553        C554   1.379       .  D
C554        C612   1.496       .  S
C555        H560   1.081       .  S
C555        C556   1.348       .  D
C556        C637   1.499       .  S
C561        C562   1.533       .  S
C561        C567   1.520       .  S
C561        C565   1.550       .  S
C561        C684   1.548       .  S
C562        H569   1.086       .  S
C562       C1427   1.358       .  D
C563        C564   1.560       .  S
C563       C1426   1.352   1_545  D
C563        C670   1.515       .  S
C564       C1432   1.594   1_545  S
C564        C566   1.560       .  S
C564        H570   1.110       .  S
C565        H571   1.086       .  S
C565       C1430   1.382       .  D
C566       C1429   1.398   1_545  D
C566        C609   1.507       .  S
C567        H572   1.082       .  S
C567        C568   1.354       .  D
C568       C1428   1.590       .  S
C568        C640   1.522       .  S
C573        C574   1.539       .  S
C573        C579   1.513       .  S
C573        C577   1.558       .  S
C573        C645   1.548       .  S
C574        H581   1.086       .  S
C574       C1439   1.349       .  D
C575        C576   1.545       .  S
C575       C1438   1.348       .  D
C575        C659   1.482   1_565  S
C576       C1444   1.564       .  S
C576        C578   1.549       .  S
C576        H582   1.110   1_565  S
C577        H583   1.086       .  S
C577       C1442   1.391       .  D
C578       C1441   1.386       .  D
C578        C624   1.491   1_565  S
C579        H584   1.076       .  S
C579        C580   1.347       .  D
C580       C1440   1.558       .  S
O585        V593   1.873       .  S
O585        C595   1.257       .  A
O586        V593   1.873       .  S
O586        C596   1.255       .  A
O587        V593   1.941       .  S
O587        C597   1.278       .  A
O588        V593   1.934       .  S
O588        C598   1.277       .  A
O589        V594   1.876       .  S
O589        C598   1.253       .  A
O590        V594   1.865       .  S
O590        C597   1.255       .  A
O591        V594   1.935       .  S
O591        C596   1.278       .  A
O592        V594   1.940       .  S
O592        C595   1.279       .  A
V593        V594   2.065       .  T
C595        C673   1.499       .  S
C596        C642   1.486       .  S
C597        C656   1.492       .  S
C598        C687   1.475       .  S
O599        V607   1.934       .  S
O599        C609   1.273       .  A
O600        C610   1.266       .  A
O601        C611   1.265       .  A
O602        V607   1.925       .  S
O602        C612   1.268       .  A
O603        V608   1.905       .  S
O603        C612   1.261       .  A
O604        C611   1.268       .  A
O605        C610   1.273       .  A
O606        V608   1.916       .  S
O606        C609   1.265       .  A
V607        V608   2.081       .  T
O613        V621   1.928       .  S
O613        C623   1.270       .  A
O614        V621   1.905       .  S
O614        C624   1.265       .  A
O615        V621   1.921       .  S
O615        C625   1.264       .  A
O616        V621   1.935       .  S
O616        C626   1.273       .  A
O617        V622   1.929       .  S
O617        C626   1.269       .  A
O618        V622   1.946       .  S
O618        C625   1.275       .  A
O619        V622   1.918       .  S
O619        C624   1.267       .  A
O620        V622   1.896       .  S
O620        C623   1.261       .  A
V621        V622   2.081       .  T
O627        V635   1.900       .  S
O627        C637   1.274       .  A
O628        V635   1.927       .  S
O628        C638   1.264       .  A
O629        V635   1.901       .  S
O629        C639   1.274       .  A
O630        V635   1.940       .  S
O630        C640   1.265       .  A
O631        V636   1.905       .  S
O631        C640   1.276       .  A
O632        V636   1.945       .  S
O632        C639   1.267       .  A
O633        V636   1.895       .  S
O633        C638   1.270       .  A
O634        V636   1.925       .  S
O634        C637   1.262       .  A
V635        V636   2.080       .  T
C641        C642   1.397       .  A
C641        C646   1.403       .  A
C641        H648   1.084       .  S
C642        C643   1.420       .  A
C643        C644   1.411       .  A
C643        N650   1.429       .  S
C644        C645   1.405       .  A
C644        H649   1.084       .  S
C645        C646   1.419       .  A
C646        N647   1.430       .  S
N647        H651   1.043       .  S
N647        H652   1.046       .  S
N650        H653   1.045       .  S
N650        H654   1.045       .  S
C655        C656   1.416       .  A
C655        C660   1.402       .  A
C655        H662   1.084       .  S
C656        C657   1.409       .  A
C657        C658   1.409       .  A
C657        N664   1.432       .  S
C658        C659   1.411       .  A
C658        H663   1.083       .  S
C659        C660   1.397       .  A
C660        N661   1.432       .  S
N661       H1529   1.046   1_545  S
N661       H1530   1.043       .  S
N664        H667   1.046       .  S
N664        H668   1.046       .  S
H665       N1525   1.045       .  S
H666       N1525   1.042       .  S
C669        C670   1.422       .  A
C669        C674   1.403       .  A
C669        H676   1.073       .  S
C670        C671   1.404       .  A
C671        C672   1.410       .  A
C671        N678   1.430       .  S
C672        C673   1.416       .  A
C672        H677   1.083       .  S
C673        C674   1.406       .  A
C674        N675   1.431       .  S
N675        H679   1.045       .  S
N675        H680   1.045       .  S
N678       H1545   1.044       .  S
N678       H1546   1.045       .  S
H681       N1542   1.044       .  S
H682       N1542   1.045       .  S
C683        C684   1.406       .  A
C683        C688   1.397       .  A
C683        H690   1.083       .  S
C684        C685   1.420       .  A
C685        C686   1.415       .  A
C685        N692   1.437       .  S
C686        C687   1.404       .  A
C686        H691   1.083       .  S
C687        C688   1.406       .  A
C688        N689   1.430       .  S
N689        H693   1.046       .  S
N689        H694   1.045       .  S
N692       H1559   1.045       .  S
N692        H696   1.045       .  S
H695       N1556   1.042       .  S
C697        C698   1.410       .  A
C697        C702   1.420       .  A
C697        H704   1.083       .  S
C698        C699   1.405       .  A
C699        C700   1.404       .  A
C699        N706   1.431       .  S
C700        C701   1.415       .  A
C700        H705   1.079       .  S
C701        C702   1.421       .  A
C702        N703   1.433       .  S
N703        H707   1.045       .  S
N703        H708   1.046       .  S
N706        H709   1.045       .  S
N706        H710   1.045       .  S
C711        C712   1.415       .  A
C711        C716   1.398       .  A
C711        H718   1.083       .  S
C712        C713   1.393       .  A
C713        C714   1.408       .  A
C713        N720   1.426       .  S
C714        C715   1.420       .  A
C714        H719   1.077       .  S
C715        C716   1.407       .  A
C716        N717   1.438       .  S
N717        H721   1.046       .  S
N717        H722   1.045       .  S
N720        H723   1.044       .  S
N720        H724   1.045       .  S
C725        C726   1.404       .  A
C725        C730   1.404       .  A
C725        H732   1.071       .  S
C726        C727   1.414       .  A
C727        C728   1.407       .  A
C727        N734   1.433       .  S
C728        C729   1.412       .  A
C728        H733   1.084       .  S
C729        C730   1.402       .  A
C730        N731   1.427       .  S
N731        H735   1.040       .  S
N731        H736   1.044       .  S
N734        H737   1.045       .  S
N734        H738   1.045       .  S
C739        C740   1.403       .  A
C739        C744   1.406       .  A
C739        H746   1.081       .  S
C740        C741   1.415       .  A
C741        C742   1.403       .  A
C741        N748   1.436       .  S
C742        C743   1.404       .  A
C742        H747   1.083       .  S
C743        C744   1.419       .  A
C744        N745   1.432       .  S
N745        H749   1.045       .  S
N745        H750   1.046       .  S
N748        H751   1.046       .  S
N748        H752   1.045       .  S
C753        C754   1.386       .  A
C753        C758   1.394       .  A
C753        H760   1.084       .  S
C754        C755   1.433       .  A
C755        C756   1.426       .  A
C755        N762   1.437       .  S
C756        C757   1.399       .  A
C756        H761   1.082       .  S
C757        C758   1.440       .  A
C758        N759   1.436       .  S
N759        H763   1.046       .  S
N759        H764   1.045       .  S
N762        H765   1.046       .  S
N762        H766   1.045       .  S
C767        C768   1.400       .  A
C767        C772   1.414       .  A
C767        H774   1.083       .  S
C768        C769   1.429       .  A
C769        C770   1.407       .  A
C769        N776   1.433       .  S
C770        C771   1.400       .  A
C770        H775   1.084       .  S
C771        C772   1.417       .  A
C772        N773   1.428       .  S
N773        H777   1.046       .  S
N773        H778   1.045       .  S
N776        H779   1.044   1_556  S
N776        H780   1.046   1_556  S
C781        C782   1.415       .  A
C781        C786   1.409       .  A
C781        H788   1.084       .  S
C782        C783   1.409       .  A
C783        C784   1.413       .  A
C783        N790   1.427       .  S
C784        C785   1.409       .  A
C784        H789   1.080       .  S
C785        C786   1.411       .  A
C786        N787   1.433       .  S
N787       H1655   1.045   1_545  S
N787       H1656   1.045       .  S
N790        H793   1.046       .  S
N790        H794   1.045   1_556  S
H791       N1651   1.045       .  S
H792       N1651   1.045       .  S
C795        C796   1.402       .  A
C795        C800   1.407       .  A
C795        H802   1.084       .  S
C796        C797   1.422       .  A
C797        C798   1.403       .  A
C797        N804   1.434       .  S
C798        C799   1.400       .  A
C798        H803   1.082   1_556  S
C799        C800   1.419       .  A
C800        N801   1.435       .  S
N801        H805   1.045       .  S
N801        H806   1.046       .  S
N804        H807   1.046       .  S
N804        H808   1.045   1_556  S
C809        C810   1.407       .  A
C809        C814   1.412       .  A
C809        H816   1.082       .  S
C810        C811   1.419       .  A
C811        C812   1.404       .  A
C811        N818   1.431       .  S
C812        C813   1.398       .  A
C812        H817   1.084       .  S
C813        C814   1.418       .  A
C814        N815   1.431       .  S
N815        H819   1.046       .  S
N815        H820   1.042       .  S
N818        H821   1.044       .  S
N818        H822   1.046       .  S
C823        C824   1.415       .  A
C823        C828   1.403       .  A
C823        H830   1.084       .  S
C824        C825   1.407       .  A
C825        C826   1.402       .  A
C825        N832   1.429       .  S
C826        C827   1.403       .  A
C826        H831   1.079       .  S
C827        C828   1.399       .  A
C828        N829   1.432       .  S
N829        H833   1.045       .  S
N829        H834   1.045       .  S
N832        H835   1.046       .  S
N832        H836   1.044       .  S
C837        C838   1.415       .  A
C837        C842   1.411       .  A
C837        H844   1.083       .  S
C838        C839   1.397       .  A
C839        C840   1.402       .  A
C839        N846   1.425       .  S
C840        C841   1.413       .  A
C840        H845   1.075       .  S
C841        C842   1.406       .  A
C842        N843   1.436       .  S
N843        H847   1.045       .  S
N843        H848   1.046       .  S
N846        H849   1.045       .  S
N846        H850   1.045       .  S
C851        C852   1.406       .  A
C851        C856   1.416       .  A
C851        H858   1.083       .  S
C852        C853   1.405       .  A
C853        C854   1.396       .  A
C853        N860   1.428       .  S
C854        C855   1.404       .  A
C854        H859   1.081       .  S
C855        C856   1.421       .  A
C856        N857   1.437       .  S
N857        H861   1.046       .  S
N857        H862   1.045       .  S
N860        H863   1.045       .  S
N860        H864   1.046       .  S
O865        V873   1.942       .  S
O865        C875   1.278       .  A
O866        C876   1.279       .  A
O867        V873   1.875   1_655  S
O867        C877   1.256       .  A
O868        C878   1.256       .  A
O869        V874   1.943   1_565  S
O869        C878   1.278       .  A
O870        C877   1.280       .  A
O871        V874   1.869   1_665  S
O871        C876   1.252       .  A
O872        C875   1.252       .  A
C875       C1256   1.473       .  S
C876       C1284   1.476       .  S
C877       C1270   1.500       .  S
C878       C1245   1.488       .  S
C879        C880   1.518       .  S
C879        C885   1.531       .  S
C879        C883   1.546       .  S
C879       C1242   1.556       .  S
C880        H887   1.079       .  S
C880        C881   1.353       .  D
C881        C882   1.565       .  S
C881        C952   1.489       .  S
C882        C886   1.557       .  S
C882        C884   1.564       .  S
C882        H888   1.110       .  S
C883        H889   1.086       .  S
C883        C884   1.385       .  D
C884       C1055   1.493       .  S
C885        H890   1.083       .  S
C885        C886   1.355       .  D
C886       C1259   1.504       .  S
C891        C892   1.517       .  S
C891        C897   1.535       .  S
C891        C895   1.552       .  S
C891       C1287   1.551       .  S
C892        H899   1.080       .  S
C892        C893   1.355       .  D
C893        C894   1.588       .  S
C893       C1071   1.520       .  S
C894        C898   1.559       .  S
C894        C896   1.561       .  S
C894        H900   1.110       .  S
C895        H901   1.086       .  S
C895        C896   1.386       .  D
C896       C1042   1.512       .  S
C897        H902   1.087       .  S
C897        C898   1.354       .  D
C898       C1273   1.502       .  S
C903        C904   1.515       .  S
C903        C909   1.540       .  S
C903        C907   1.545       .  S
C903       C1231   1.546       .  S
C904        H911   1.081       .  S
C904        C905   1.348       .  D
C905       C1070   1.494       .  S
C906        C910   1.553       .  S
C906        C908   1.557       .  S
C906        H912   1.110       .  S
C907        H913   1.086       .  S
C908       C1043   1.496       .  S
C909        H914   1.086       .  S
C910       C1217   1.494       .  S
O915        V923   1.856       .  S
O915        C925   1.251       .  A
O916        V923   1.841       .  S
O916        C926   1.247       .  A
O917        V923   1.940       .  S
O917        C927   1.282       .  A
O918        V923   1.942       .  S
O918        C928   1.279       .  A
O919        V924   1.883       .  S
O919        C928   1.259       .  A
O920        V924   1.878       .  S
O920        C927   1.254       .  A
O921        V924   1.951       .  S
O921        C926   1.281       .  A
O922        V924   1.961       .  S
O922        C925   1.283       .  A
V923        V924   2.062       .  T
C925       C1200   1.506       .  S
C926       C1228   1.480       .  S
C927       C1186   1.499       .  S
C928       C1214   1.507       .  S
C929        C930   1.503       .  S
C929        C935   1.514   1_565  S
C929        C933   1.567   1_565  S
C929       C1189   1.554       .  S
C930        H937   1.089       .  S
C930        C931   1.349       .  D
C931        C953   1.525       .  S
C932        C936   1.554       .  S
C932        C934   1.575       .  S
C932        H938   1.110       .  S
C933        H939   1.085       .  S
C934       C1058   1.526       .  S
C935        H940   1.090       .  S
C936       C1203   1.503       .  S
O941       V1381   1.895   1_554  S
O941        C951   1.269       .  A
O942        V949   1.923       .  S
O942        C952   1.264       .  A
O943        V949   1.891       .  S
O943        C953   1.274       .  A
O944       V1381   1.938   1_554  S
O944        C954   1.265       .  A
O945       V1382   1.904   1_554  S
O945        C954   1.276       .  A
O946        V950   1.949       .  S
O946        C953   1.267       .  A
O947        V950   1.892       .  S
O947        C952   1.269       .  A
O948       V1382   1.920   1_554  S
O948        C951   1.263       .  A
V949       O1373   1.898       .  S
V949       O1376   1.935       .  S
V949        V950   2.080       .  T
V950       O1377   1.907       .  S
V950       O1380   1.918       .  S
C951       C1012   1.483       .  S
C954        C976   1.519       .  S
O955        C965   1.254       .  A
O956        V963   1.868       .  S
O956        C966   1.255       .  A
O957        C967   1.280       .  A
O958        V963   1.945   1_455  S
O958        C968   1.280       .  A
O959        V964   1.854       .  S
O959        C968   1.253       .  A
O960        C967   1.250       .  A
O961        V964   1.946   1_655  S
O961        C966   1.281       .  A
O962        C965   1.279       .  A
V963        V964   2.055   1_655  T
C965       C1130   1.479       .  S
C966       C1161   1.493       .  S
C967       C1175   1.478       .  S
C968       C1144   1.489       .  S
C969        C970   1.532       .  S
C969        C975   1.516       .  S
C969        C973   1.554       .  S
C969       C1133   1.551       .  S
C970        H977   1.083       .  S
C970        C971   1.355       .  D
C971        C972   1.550       .  S
C971       C1147   1.491       .  S
C972        C976   1.589       .  S
C972        C974   1.560       .  S
C972        H978   1.110       .  S
C973        H979   1.085       .  S
C973        C974   1.386       .  D
C974       C1057   1.518       .  S
C975        H980   1.083       .  S
C975        C976   1.354       .  D
C981        C982   1.536       .  S
C981        C987   1.516       .  S
C981        C985   1.543       .  S
C981       C1172   1.545       .  S
C982        H989   1.086       .  S
C982        C983   1.349       .  D
C983        C984   1.556       .  S
C983       C1158   1.488       .  S
C984        C988   1.574       .  S
C984        C986   1.555       .  S
C984        H990   1.110       .  S
C985        H991   1.086       .  S
C985        C986   1.382       .  D
C986       C1044   1.491       .  S
C987        H992   1.081       .  S
C987        C988   1.350       .  D
C988       C1069   1.496       .  S
C993        C994   1.532   1_565  S
C993        C999   1.519       .  S
C993        C997   1.540       .  S
C993       C1116   1.539       .  S
C994       H1001   1.085       .  S
C995        C996   1.557       .  S
C995       C1102   1.502       .  S
C996        C998   1.561       .  S
C996       H1002   1.110       .  S
C997       H1003   1.086       .  S
C998       C1041   1.514       .  S
C999       H1004   1.083       .  S
C999       C1000   1.355       .  D
C1000      C1072   1.517       .  S
C1005      C1006   1.542       .  S
C1005      C1011   1.507       .  S
C1005      C1009   1.549       .  S
C1005      C1077   1.539       .  S
C1006      H1013   1.087       .  S
C1007      C1008   1.542       .  S
C1007      C1091   1.478       .  S
C1008      C1010   1.544       .  S
C1008      H1014   1.111       .  S
C1009      H1015   1.086       .  S
C1010      C1056   1.485       .  S
C1011      H1016   1.075       .  S
C1011      C1012   1.348       .  D
O1017      V1025   1.875       .  S
O1017      C1027   1.257       .  A
O1018      V1025   1.875       .  S
O1018      C1028   1.255       .  A
O1019      V1025   1.938       .  S
O1019      C1029   1.278       .  A
O1020      V1025   1.931       .  S
O1020      C1030   1.276       .  A
O1021      V1026   1.866       .  S
O1021      C1030   1.251       .  A
O1022      V1026   1.857       .  S
O1022      C1029   1.253       .  A
O1023      V1026   1.924       .  S
O1023      C1028   1.275       .  A
O1024      V1026   1.930       .  S
O1024      C1027   1.277       .  A
V1025      V1026   2.068       .  T
C1027      C1105   1.494       .  S
C1028      C1074   1.480       .  S
C1029      C1088   1.484       .  S
C1030      C1119   1.465       .  S
O1031      V1039   1.935   1_554  S
O1031      C1041   1.274       .  A
O1032      V1471   1.928       .  S
O1032      C1042   1.268       .  A
O1033      V1471   1.912       .  S
O1033      C1043   1.266       .  A
O1034      V1039   1.920   1_554  S
O1034      C1044   1.267       .  A
O1035      V1040   1.903       .  S
O1035      C1044   1.263       .  A
O1036      V1472   1.923       .  S
O1036      C1043   1.269       .  A
O1037      V1472   1.927       .  S
O1037      C1042   1.271       .  A
O1038      V1040   1.925       .  S
O1038      C1041   1.267       .  A
V1039      O1464   1.931       .  S
V1039      O1465   1.904       .  S
V1039      V1040   2.081   1_556  T
V1040      O1468   1.921   1_554  S
V1040      O1469   1.932   1_554  S
O1045      V1053   1.935       .  S
O1045      C1055   1.272       .  A
O1046      V1053   1.908       .  S
O1046      C1056   1.267       .  A
O1047      V1053   1.925       .  S
O1047      C1057   1.266       .  A
O1048      V1053   1.937       .  S
O1048      C1058   1.273       .  A
O1049      V1054   1.937       .  S
O1049      C1058   1.272       .  A
O1050      V1054   1.934       .  S
O1050      C1057   1.275       .  A
O1051      V1054   1.908       .  S
O1051      C1056   1.263       .  A
O1052      V1054   1.887       .  S
O1052      C1055   1.256       .  A
V1053      V1054   2.078       .  T
O1059      V1067   1.894       .  S
O1059      C1069   1.271       .  A
O1060      V1067   1.925       .  S
O1060      C1070   1.263       .  A
O1061      V1067   1.892       .  S
O1061      C1071   1.274       .  A
O1062      V1067   1.937       .  S
O1062      C1072   1.264       .  A
O1063      V1068   1.900       .  S
O1063      C1072   1.275       .  A
O1064      V1068   1.944       .  S
O1064      C1071   1.266       .  A
O1065      V1068   1.900       .  S
O1065      C1070   1.272       .  A
O1066      V1068   1.927       .  S
O1066      C1069   1.264       .  A
V1067      V1068   2.081       .  T
C1073      C1074   1.394       .  A
C1073      C1078   1.399       .  A
C1073      H1080   1.084       .  S
C1074      C1075   1.417       .  A
C1075      C1076   1.410       .  A
C1075      N1082   1.427       .  S
C1076      C1077   1.406       .  A
C1076      H1081   1.084       .  S
C1077      C1078   1.423       .  A
C1078      N1079   1.431       .  S
N1079      H1083   1.045       .  S
N1079      H1084   1.046       .  S
N1082      H1085   1.045       .  S
N1082      H1086   1.046       .  S
C1087      C1088   1.415       .  A
C1087      C1092   1.400       .  A
C1087      H1094   1.084       .  S
C1088      C1089   1.407       .  A
C1089      C1090   1.406       .  A
C1089      N1096   1.432       .  S
C1090      C1091   1.409       .  A
C1090      H1095   1.081       .  S
C1091      C1092   1.396       .  A
C1092      N1093   1.432       .  S
N1096      H1099   1.046       .  S
N1096      H1100   1.046       .  S
C1101      C1102   1.419       .  A
C1101      C1106   1.402       .  A
C1101      H1108   1.079       .  S
C1102      C1103   1.401       .  A
C1103      C1104   1.408       .  A
C1103      N1110   1.430       .  S
C1104      C1105   1.413       .  A
C1104      H1109   1.083       .  S
C1105      C1106   1.406       .  A
C1106      N1107   1.429       .  S
N1107      H1111   1.045       .  S
N1107      H1112   1.045       .  S
C1115      C1116   1.403       .  A
C1115      C1120   1.395       .  A
C1115      H1122   1.084       .  S
C1116      C1117   1.418       .  A
C1117      C1118   1.411       .  A
C1117      N1124   1.438   1_565  S
C1118      C1119   1.403       .  A
C1118      H1123   1.084       .  S
C1119      C1120   1.407       .  A
C1120      N1121   1.431       .  S
N1121      H1125   1.046       .  S
N1121      H1126   1.046       .  S
N1124      H1128   1.046       .  S
C1129      C1130   1.405       .  A
C1129      C1134   1.412       .  A
C1129      H1136   1.084       .  S
C1130      C1131   1.408       .  A
C1131      C1132   1.402       .  A
C1131      N1138   1.430       .  S
C1132      C1133   1.408       .  A
C1132      H1137   1.083       .  S
C1133      C1134   1.420       .  A
C1134      N1135   1.434       .  S
N1135      H1139   1.045       .  S
N1135      H1140   1.046       .  S
N1138      H1141   1.046       .  S
N1138      H1142   1.046       .  S
C1143      C1144   1.416       .  A
C1143      C1148   1.399       .  A
C1143      H1150   1.083       .  S
C1144      C1145   1.401       .  A
C1145      C1146   1.405       .  A
C1145      N1152   1.433       .  S
C1146      C1147   1.421       .  A
C1146      H1151   1.077       .  S
C1147      C1148   1.404       .  A
C1148      N1149   1.438       .  S
N1149      H1153   1.045       .  S
N1149      H1154   1.045       .  S
N1152      H1155   1.046       .  S
N1152      H1156   1.046       .  S
C1157      C1158   1.407       .  A
C1157      C1162   1.409       .  A
C1157      H1164   1.075       .  S
C1158      C1159   1.408       .  A
C1159      C1160   1.402       .  A
C1159      N1166   1.433       .  S
C1160      C1161   1.413       .  A
C1160      H1165   1.084       .  S
C1161      C1162   1.408       .  A
C1162      N1163   1.434       .  S
N1163      H1167   1.045       .  S
N1163      H1168   1.044       .  S
N1166      H1169   1.044       .  S
N1166      H1170   1.045       .  S
C1171      C1172   1.404       .  A
C1171      C1176   1.406       .  A
C1171      H1178   1.084       .  S
C1172      C1173   1.417       .  A
C1173      C1174   1.404       .  A
C1173      N1180   1.436       .  S
C1174      C1175   1.402       .  A
C1174      H1179   1.084       .  S
C1175      C1176   1.421       .  A
C1176      N1177   1.433       .  S
N1177      H1181   1.046   1_554  S
N1177      H1182   1.046       .  S
N1180      H1183   1.046       .  S
N1180      H1184   1.045       .  S
C1185      C1186   1.386       .  A
C1185      C1190   1.393       .  A
C1185      H1192   1.084       .  S
C1186      C1187   1.430       .  A
C1187      C1188   1.427       .  A
C1187      N1194   1.437       .  S
C1188      C1189   1.401       .  A
C1188      H1193   1.082       .  S
C1189      C1190   1.440       .  A
C1190      N1191   1.436       .  S
N1191      H1195   1.046       .  S
N1191      H1196   1.045       .  S
N1194      H1197   1.046       .  S
N1194      H1198   1.044       .  S
C1199      C1200   1.402       .  A
C1199      C1204   1.417       .  A
C1199      H1206   1.083       .  S
C1200      C1201   1.430       .  A
C1201      C1202   1.408       .  A
C1201      N1208   1.433       .  S
C1202      C1203   1.400       .  A
C1202      H1207   1.082       .  S
C1203      C1204   1.414       .  A
C1204      N1205   1.428       .  S
N1205      H1209   1.046       .  S
N1205      H1210   1.046       .  S
N1208      H1211   1.043       .  S
N1208      H1212   1.046       .  S
C1213      C1214   1.418       .  A
C1213      C1218   1.409       .  A
C1213      H1220   1.083       .  S
C1214      C1215   1.410       .  A
C1215      C1216   1.410       .  A
C1215      N1222   1.427       .  S
C1216      C1217   1.409       .  A
C1216      H1221   1.084       .  S
C1217      C1218   1.406       .  A
C1218      N1219   1.432       .  S
N1222      H1225   1.045       .  S
N1222      H1226   1.045       .  S
C1227      C1228   1.400       .  A
C1227      C1232   1.406       .  A
C1227      H1234   1.084       .  S
C1228      C1229   1.422       .  A
C1229      C1230   1.404       .  A
C1229      N1236   1.432       .  S
C1230      C1231   1.400       .  A
C1230      H1235   1.083       .  S
C1231      C1232   1.420       .  A
C1232      N1233   1.435       .  S
N1233      H1237   1.045       .  S
N1233      H1238   1.046       .  S
N1236      H1239   1.045       .  S
N1236      H1240   1.045       .  S
C1241      C1242   1.408       .  A
C1241      C1246   1.408       .  A
C1241      H1248   1.082       .  S
C1242      C1243   1.416       .  A
C1243      C1244   1.411       .  A
C1243      N1250   1.434       .  S
C1244      C1245   1.404       .  A
C1244      H1249   1.081       .  S
C1245      C1246   1.414       .  A
C1246      N1247   1.432       .  S
N1247      H1251   1.046       .  S
N1247      H1252   1.043       .  S
N1250      H1253   1.045       .  S
N1250      H1254   1.046       .  S
C1255      C1256   1.405       .  A
C1255      C1260   1.414       .  A
C1255      H1262   1.081       .  S
C1256      C1257   1.409       .  A
C1257      C1258   1.403       .  A
C1257      N1264   1.439       .  S
C1258      C1259   1.411       .  A
C1258      H1263   1.084       .  S
C1259      C1260   1.410       .  A
C1260      N1261   1.432       .  S
N1261      H1265   1.046       .  S
N1261      H1266   1.045       .  S
N1264      H1267   1.046       .  S
N1264      H1268   1.046       .  S
C1269      C1270   1.415       .  A
C1269      C1274   1.409       .  A
C1269      H1276   1.083       .  S
C1270      C1271   1.400       .  A
C1271      C1272   1.406       .  A
C1271      N1278   1.427       .  S
C1272      C1273   1.415       .  A
C1272      H1277   1.076       .  S
C1273      C1274   1.411       .  A
C1274      N1275   1.435       .  S
N1275      H1279   1.046       .  S
N1275      H1280   1.045       .  S
N1278      H1281   1.041       .  S
N1278      H1282   1.046       .  S
C1283      C1284   1.406       .  A
C1283      C1288   1.416       .  A
C1283      H1290   1.084       .  S
C1284      C1285   1.406       .  A
C1285      C1286   1.398       .  A
C1285      N1292   1.429       .  S
C1286      C1287   1.406       .  A
C1286      H1291   1.082       .  S
C1287      C1288   1.420       .  A
C1288      N1289   1.437       .  S
N1289      H1293   1.045       .  S
N1289      H1294   1.046       .  S
N1292      H1295   1.044       .  S
N1292      H1296   1.046       .  S
O1297      V1305   1.941       .  S
O1297      C1307   1.278       .  A
O1298      C1308   1.279       .  A
O1299      V1305   1.871   1_655  S
O1299      C1309   1.256       .  A
O1300      C1310   1.254       .  A
O1301      V1306   1.943   1_565  S
O1301      C1310   1.279       .  A
O1302      C1309   1.280       .  A
O1303      V1306   1.867   1_665  S
O1303      C1308   1.251       .  A
O1304      C1307   1.254       .  A
C1307      C1688   1.486       .  S
C1308      C1716   1.476       .  S
C1309      C1702   1.497       .  S
C1310      C1677   1.485       .  S
C1311      C1312   1.515       .  S
C1311      C1317   1.537       .  S
C1311      C1315   1.559       .  S
C1311      C1674   1.553       .  S
C1312      H1319   1.077       .  S
C1312      C1313   1.353       .  D
C1313      C1314   1.563       .  S
C1313      C1384   1.486       .  S
C1314      C1318   1.545       .  S
C1314      C1316   1.555       .  S
C1314      H1320   1.110       .  S
C1315      H1321   1.086       .  S
C1315      C1316   1.391       .  D
C1316      C1487   1.507       .  S
C1317      H1322   1.087       .  S
C1317      C1318   1.347       .  D
C1318      C1691   1.478       .  S
C1323      C1324   1.517       .  S
C1323      C1329   1.531       .  S
C1323      C1327   1.555       .  S
C1323      C1719   1.552       .  S
C1324      H1331   1.083       .  S
C1324      C1325   1.354       .  D
C1325      C1326   1.591       .  S
C1325      C1503   1.521       .  S
C1326      C1330   1.561       .  S
C1326      C1328   1.559       .  S
C1326      H1332   1.110       .  S
C1327      H1333   1.085       .  S
C1327      C1328   1.386       .  D
C1328      C1474   1.518       .  S
C1329      H1334   1.085       .  S
C1329      C1330   1.356       .  D
C1330      C1705   1.498       .  S
C1335      C1336   1.509       .  S
C1335      C1341   1.540       .  S
C1335      C1339   1.546       .  S
C1335      C1663   1.545       .  S
C1336      H1343   1.079       .  S
C1336      C1337   1.348       .  D
C1337      C1502   1.497       .  S
C1338      C1342   1.559       .  S
C1338      C1340   1.559       .  S
C1338      H1344   1.110       .  S
C1339      H1345   1.086       .  S
C1340      C1475   1.493       .  S
C1341      H1346   1.086       .  S
C1342      C1649   1.495       .  S
O1347      V1355   1.859       .  S
O1347      C1357   1.252       .  A
O1348      V1355   1.846       .  S
O1348      C1358   1.248       .  A
O1349      V1355   1.934       .  S
O1349      C1359   1.281       .  A
O1350      V1355   1.942       .  S
O1350      C1360   1.278       .  A
O1351      V1356   1.881       .  S
O1351      C1360   1.257       .  A
O1352      V1356   1.876       .  S
O1352      C1359   1.254       .  A
O1353      V1356   1.948       .  S
O1353      C1358   1.281       .  A
O1354      V1356   1.956       .  S
O1354      C1357   1.281       .  A
V1355      V1356   2.062       .  T
C1357      C1632   1.504       .  S
C1358      C1660   1.479       .  S
C1359      C1618   1.494       .  S
C1360      C1646   1.495       .  S
C1361      C1362   1.500       .  S
C1361      C1367   1.514   1_565  S
C1361      C1365   1.568   1_565  S
C1361      C1621   1.546       .  S
C1362      H1369   1.090       .  S
C1362      C1363   1.347       .  D
C1363      C1385   1.516       .  S
C1364      C1368   1.550       .  S
C1364      C1366   1.571       .  S
C1364      H1370   1.110       .  S
C1365      H1371   1.085       .  S
C1366      C1490   1.527       .  S
C1367      H1372   1.090       .  S
C1368      C1635   1.497       .  S
O1373      C1383   1.269       .  A
O1374      V1381   1.920       .  S
O1374      C1384   1.262       .  A
O1375      V1381   1.884       .  S
O1375      C1385   1.273       .  A
O1376      C1386   1.264       .  A
O1377      C1386   1.277       .  A
O1378      V1382   1.944       .  S
O1378      C1385   1.266       .  A
O1379      V1382   1.892       .  S
O1379      C1384   1.269       .  A
O1380      C1383   1.263       .  A
V1381      V1382   2.081       .  T
C1383      C1444   1.483       .  S
C1386      C1408   1.519       .  S
O1387      C1397   1.256       .  A
O1388      V1395   1.867       .  S
O1388      C1398   1.255       .  A
O1389      C1399   1.283       .  A
O1390      V1395   1.940   1_455  S
O1390      C1400   1.280       .  A
O1391      V1396   1.856   1_455  S
O1391      C1400   1.252       .  A
O1392      C1399   1.249       .  A
O1393      V1396   1.949       .  S
O1393      C1398   1.281       .  A
O1394      C1397   1.281       .  A
V1395      V1396   2.058       .  T
C1397      C1562   1.493       .  S
C1398      C1593   1.492       .  S
C1399      C1607   1.486       .  S
C1400      C1576   1.489       .  S
C1401      C1402   1.535       .  S
C1401      C1407   1.522       .  S
C1401      C1405   1.562       .  S
C1401      C1565   1.561       .  S
C1402      H1409   1.086       .  S
C1402      C1403   1.353       .  D
C1403      C1404   1.546       .  S
C1403      C1579   1.490       .  S
C1404      C1408   1.583       .  S
C1404      C1406   1.567       .  S
C1404      H1410   1.110       .  S
C1405      H1411   1.085       .  S
C1405      C1406   1.393       .  D
C1406      C1489   1.526       .  S
C1407      H1412   1.079       .  S
C1407      C1408   1.351       .  D
C1413      C1414   1.540       .  S
C1413      C1419   1.520       .  S
C1413      C1417   1.551       .  S
C1413      C1604   1.556       .  S
C1414      H1421   1.085       .  S
C1414      C1415   1.350       .  D
C1415      C1416   1.552       .  S
C1415      C1590   1.484       .  S
C1416      C1420   1.570       .  S
C1416      C1418   1.557       .  S
C1416      H1422   1.110       .  S
C1417      H1423   1.086       .  S
C1417      C1418   1.388       .  D
C1418      C1476   1.500       .  S
C1419      H1424   1.081       .  S
C1419      C1420   1.345       .  D
C1420      C1501   1.498       .  S
C1425      C1426   1.532       .  S
C1425      C1431   1.503       .  S
C1425      C1429   1.563       .  S
C1425      C1548   1.541       .  S
C1426      H1433   1.091   1_565  S
C1427      C1428   1.560       .  S
C1427      C1534   1.498       .  S
C1428      C1430   1.561       .  S
C1428      H1434   1.110       .  S
C1429      H1435   1.085       .  S
C1430      C1473   1.514       .  S
C1431      H1436   1.088       .  S
C1431      C1432   1.344       .  D
C1432      C1504   1.518       .  S
C1437      C1438   1.538       .  S
C1437      C1443   1.515       .  S
C1437      C1441   1.552       .  S
C1437      C1509   1.542       .  S
C1438      H1445   1.087       .  S
C1439      C1440   1.542       .  S
C1439      C1523   1.478       .  S
C1440      C1442   1.548       .  S
C1440      H1446   1.111       .  S
C1441      H1447   1.086       .  S
C1442      C1488   1.496       .  S
C1443      H1448   1.077       .  S
C1443      C1444   1.349       .  D
O1449      V1457   1.879       .  S
O1449      C1459   1.259       .  A
O1450      V1457   1.874       .  S
O1450      C1460   1.256       .  A
O1451      V1457   1.932       .  S
O1451      C1461   1.276       .  A
O1452      V1457   1.920       .  S
O1452      C1462   1.276       .  A
O1453      V1458   1.876       .  S
O1453      C1462   1.254       .  A
O1454      V1458   1.867       .  S
O1454      C1461   1.256       .  A
O1455      V1458   1.928       .  S
O1455      C1460   1.275       .  A
O1456      V1458   1.934       .  S
O1456      C1459   1.277       .  A
V1457      V1458   2.068       .  T
C1459      C1537   1.500       .  S
C1460      C1506   1.480       .  S
C1461      C1520   1.489       .  S
C1462      C1551   1.480       .  S
O1463      V1471   1.933       .  S
O1463      C1473   1.275       .  A
O1464      C1474   1.268       .  A
O1465      C1475   1.262       .  A
O1466      V1471   1.928       .  S
O1466      C1476   1.269       .  A
O1467      V1472   1.908       .  S
O1467      C1476   1.264       .  A
O1468      C1475   1.268       .  A
O1469      C1474   1.273       .  A
O1470      V1472   1.923       .  S
O1470      C1473   1.265       .  A
V1471      V1472   2.082       .  T
O1477      V1485   1.936       .  S
O1477      C1487   1.271       .  A
O1478      V1485   1.905       .  S
O1478      C1488   1.266       .  A
O1479      V1485   1.927       .  S
O1479      C1489   1.266       .  A
O1480      V1485   1.943       .  S
O1480      C1490   1.275       .  A
O1481      V1486   1.930       .  S
O1481      C1490   1.269       .  A
O1482      V1486   1.949       .  S
O1482      C1489   1.276       .  A
O1483      V1486   1.925       .  S
O1483      C1488   1.268       .  A
O1484      V1486   1.904       .  S
O1484      C1487   1.263       .  A
V1485      V1486   2.079       .  T
O1491      V1499   1.902       .  S
O1491      C1501   1.274       .  A
O1492      V1499   1.933       .  S
O1492      C1502   1.265       .  A
O1493      V1499   1.901       .  S
O1493      C1503   1.275       .  A
O1494      V1499   1.943       .  S
O1494      C1504   1.265       .  A
O1495      V1500   1.893       .  S
O1495      C1504   1.276       .  A
O1496      V1500   1.944       .  S
O1496      C1503   1.266       .  A
O1497      V1500   1.892       .  S
O1497      C1502   1.270       .  A
O1498      V1500   1.923       .  S
O1498      C1501   1.261       .  A
V1499      V1500   2.080       .  T
C1505      C1506   1.396       .  A
C1505      C1510   1.402       .  A
C1505      H1512   1.084       .  S
C1506      C1507   1.416       .  A
C1507      C1508   1.410       .  A
C1507      N1514   1.426       .  S
C1508      C1509   1.405       .  A
C1508      H1513   1.084       .  S
C1509      C1510   1.416       .  A
C1510      N1511   1.429       .  S
N1511      H1515   1.043       .  S
N1511      H1516   1.046       .  S
N1514      H1517   1.045       .  S
N1514      H1518   1.045       .  S
C1519      C1520   1.416       .  A
C1519      C1524   1.402       .  A
C1519      H1526   1.083       .  S
C1520      C1521   1.409       .  A
C1521      C1522   1.407       .  A
C1521      N1528   1.432       .  S
C1522      C1523   1.410       .  A
C1522      H1527   1.083       .  S
C1523      C1524   1.394       .  A
C1524      N1525   1.431       .  S
N1528      H1531   1.045       .  S
N1528      H1532   1.045       .  S
C1533      C1534   1.414       .  A
C1533      C1538   1.404       .  A
C1533      H1540   1.076       .  S
C1534      C1535   1.403       .  A
C1535      C1536   1.408       .  A
C1535      N1542   1.430       .  S
C1536      C1537   1.414       .  A
C1536      H1541   1.083       .  S
C1537      C1538   1.410       .  A
C1538      N1539   1.429       .  S
N1539      H1543   1.045       .  S
N1539      H1544   1.045       .  S
C1547      C1548   1.425       .  A
C1547      C1552   1.389       .  A
C1547      H1554   1.079       .  S
C1548      C1549   1.411       .  A
C1549      C1550   1.417       .  A
C1549      N1556   1.431       .  S
C1550      C1551   1.414       .  A
C1550      H1555   1.083       .  S
C1551      C1552   1.397       .  A
C1552      N1553   1.435       .  S
N1553      H1557   1.046       .  S
N1553      H1558   1.046       .  S
N1556      H1560   1.045       .  S
C1561      C1562   1.411       .  A
C1561      C1566   1.420       .  A
C1561      H1568   1.083       .  S
C1562      C1563   1.406       .  A
C1563      C1564   1.404       .  A
C1563      N1570   1.430       .  S
C1564      C1565   1.413       .  A
C1564      H1569   1.080       .  S
C1565      C1566   1.419       .  A
C1566      N1567   1.433       .  S
N1567      H1571   1.045       .  S
N1567      H1572   1.045       .  S
N1570      H1573   1.046       .  S
N1570      H1574   1.044       .  S
C1575      C1576   1.415       .  A
C1575      C1580   1.401       .  A
C1575      H1582   1.083       .  S
C1576      C1577   1.398       .  A
C1577      C1578   1.407       .  A
C1577      N1584   1.430       .  S
C1578      C1579   1.417       .  A
C1578      H1583   1.079       .  S
C1579      C1580   1.409       .  A
C1580      N1581   1.439       .  S
N1581      H1585   1.046       .  S
N1581      H1586   1.045       .  S
N1584      H1587   1.045       .  S
N1584      H1588   1.045       .  S
C1589      C1590   1.407       .  A
C1589      C1594   1.410       .  A
C1589      H1596   1.078       .  S
C1590      C1591   1.405       .  A
C1591      C1592   1.401       .  A
C1591      N1598   1.433       .  S
C1592      C1593   1.413       .  A
C1592      H1597   1.084       .  S
C1593      C1594   1.409       .  A
C1594      N1595   1.434       .  S
N1595      H1599   1.046       .  S
N1595      H1600   1.043       .  S
N1598      H1601   1.045       .  S
N1598      H1602   1.045       .  S
C1603      C1604   1.403       .  A
C1603      C1608   1.409       .  A
C1603      H1610   1.083       .  S
C1604      C1605   1.419       .  A
C1605      C1606   1.408       .  A
C1605      N1612   1.436       .  S
C1606      C1607   1.404       .  A
C1606      H1611   1.083       .  S
C1607      C1608   1.425       .  A
C1608      N1609   1.433       .  S
N1609      H1613   1.046       .  S
N1609      H1614   1.046       .  S
N1612      H1615   1.046       .  S
N1612      H1616   1.045       .  S
C1617      C1618   1.386       .  A
C1617      C1622   1.391       .  A
C1617      H1624   1.084       .  S
C1618      C1619   1.430       .  A
C1619      C1620   1.424       .  A
C1619      N1626   1.437       .  S
C1620      C1621   1.398       .  A
C1620      H1625   1.082       .  S
C1621      C1622   1.438       .  A
C1622      N1623   1.436       .  S
N1623      H1627   1.046       .  S
N1623      H1628   1.045       .  S
N1626      H1629   1.046       .  S
N1626      H1630   1.045       .  S
C1631      C1632   1.402       .  A
C1631      C1636   1.416       .  A
C1631      H1638   1.083       .  S
C1632      C1633   1.428       .  A
C1633      C1634   1.406       .  A
C1633      N1640   1.433       .  S
C1634      C1635   1.400       .  A
C1634      H1639   1.084       .  S
C1635      C1636   1.416       .  A
C1636      N1637   1.429       .  S
N1637      H1641   1.046       .  S
N1637      H1642   1.046       .  S
N1640      H1643   1.043   1_556  S
N1640      H1644   1.046   1_556  S
C1645      C1646   1.411       .  A
C1645      C1650   1.409       .  A
C1645      H1652   1.084       .  S
C1646      C1647   1.409       .  A
C1647      C1648   1.407       .  A
C1647      N1654   1.429       .  S
C1648      C1649   1.403       .  A
C1648      H1653   1.073       .  S
C1649      C1650   1.415       .  A
C1650      N1651   1.433       .  S
N1654      H1657   1.043       .  S
N1654      H1658   1.042       .  S
C1659      C1660   1.399       .  A
C1659      C1664   1.402       .  A
C1659      H1666   1.083       .  S
C1660      C1661   1.425       .  A
C1661      C1662   1.406       .  A
C1661      N1668   1.433       .  S
C1662      C1663   1.401       .  A
C1662      H1667   1.083       .  S
C1663      C1664   1.420       .  A
C1664      N1665   1.436       .  S
N1665      H1669   1.045       .  S
N1665      H1670   1.046       .  S
N1668      H1671   1.046       .  S
N1668      H1672   1.044   1_556  S
C1673      C1674   1.408       .  A
C1673      C1678   1.410       .  A
C1673      H1680   1.083       .  S
C1674      C1675   1.419       .  A
C1675      C1676   1.409       .  A
C1675      N1682   1.432       .  S
C1676      C1677   1.400       .  A
C1676      H1681   1.084       .  S
C1677      C1678   1.416       .  A
C1678      N1679   1.431       .  S
N1679      H1683   1.045       .  S
N1679      H1684   1.042       .  S
N1682      H1685   1.045       .  S
N1682      H1686   1.046       .  S
C1687      C1688   1.414       .  A
C1687      C1692   1.403       .  A
C1687      H1694   1.084       .  S
C1688      C1689   1.405       .  A
C1689      C1690   1.401       .  A
C1689      N1696   1.427       .  S
C1690      C1691   1.405       .  A
C1690      H1695   1.078       .  S
C1691      C1692   1.401       .  A
C1692      N1693   1.432       .  S
N1693      H1697   1.045       .  S
N1693      H1698   1.046       .  S
N1696      H1699   1.046       .  S
N1696      H1700   1.044       .  S
C1701      C1702   1.415       .  A
C1701      C1706   1.411       .  A
C1701      H1708   1.083       .  S
C1702      C1703   1.401       .  A
C1703      C1704   1.407       .  A
C1703      N1710   1.428       .  S
C1704      C1705   1.416       .  A
C1704      H1709   1.077       .  S
C1705      C1706   1.405       .  A
C1706      N1707   1.436       .  S
N1707      H1711   1.046       .  S
N1707      H1712   1.045       .  S
N1710      H1713   1.044       .  S
N1710      H1714   1.046       .  S
C1715      C1716   1.404       .  A
C1715      C1720   1.414       .  A
C1715      H1722   1.084       .  S
C1716      C1717   1.407       .  A
C1717      C1718   1.401       .  A
C1717      N1724   1.430       .  S
C1718      C1719   1.407       .  A
C1718      H1723   1.083       .  S
C1719      C1720   1.420       .  A
C1720      N1721   1.437       .  S
N1721      H1725   1.046       .  S
N1721      H1726   1.045       .  S
N1724      H1727   1.045       .  S
N1724      H1728   1.046       .  S
