geometry optimzed in LAMMPS
_audit_creation_date              2020-12-01 
_audit_creation_method            'lammps2cif' 
_symmetry_space_group_name_H-M    'P1' 
_symmetry_Int_Tables_number       1 
_symmetry_cell_setting            triclinic 
loop_ 
_symmetry_equiv_pos_as_xyz 
  x,y,z 
_cell_length_a                    100.53558343 
_cell_length_b                    100.16905340427884 
_cell_length_c                    100.3103760511993 
_cell_angle_alpha                 89.9188458851717 
_cell_angle_beta                  89.99103950712829 
_cell_angle_gamma                 89.9555350990013 
loop_ 
_atom_site_label 
_atom_site_type_symbol 
_atom_site_fract_x 
_atom_site_fract_y 
_atom_site_fract_z 
_atom_site_charge 
N1          N  0.01153980  0.13597847  0.92066458    -0.26800
N2          N  0.00473184  0.12636087  0.92656612    -0.34600
C3          C  0.01115863  0.11468826  0.92484388     0.01600
C4          C  0.02248910  0.11705485  0.91736803     0.07600
C5          C  0.02241312  0.13066458  0.91488689    -0.05500
H6          H  0.00765374  0.10513569  0.92845719     0.08300
H7          H  0.02968016  0.13629098  0.90925699     0.09500
Cu8        Cu  0.98658833  0.12970256  0.93587286     0.44200
Cu9        Cu  0.00536115  0.15581569  0.92065573     0.42000
Cu10       Cu  0.97164413  0.16279264  0.93219584     0.43900
N11         N  0.96820493  0.13510693  0.94359754    -0.34100
N12         N  0.96245496  0.14687679  0.94188710    -0.28400
C13         C  0.95059537  0.14684122  0.94817003    -0.04500
C14         C  0.94894035  0.13450426  0.95418551     0.07700
C15         C  0.96027396  0.12736794  0.95110890     0.01500
H16         H  0.94390716  0.15529251  0.94867624     0.09200
H17         H  0.96262089  0.11726825  0.95414358     0.08200
N18         N  0.98460961  0.17733788  0.92501929    -0.35600
N19         N  0.99702832  0.17483319  0.92142114    -0.27800
C20         C  0.00321501  0.18645643  0.91880956    -0.03000
C21         C  0.99424623  0.19676280  0.92072140     0.05600
C22         C  0.98253339  0.19062234  0.92457873     0.03700
H23         H  0.01355906  0.18733606  0.91597316     0.08800
H24         H  0.97338627  0.19549155  0.92752443     0.07600
N25         N  0.85004491  0.07439215  0.06674834    -0.26800
N26         N  0.86179359  0.07277253  0.06105027    -0.34600
C27         C  0.86942168  0.06501066  0.06884489     0.01600
C28         C  0.86218543  0.06166161  0.08006246     0.07600
C29         C  0.84996459  0.06782047  0.07848025    -0.05500
H30         H  0.87951053  0.06207178  0.06650757     0.08300
H31         H  0.84151057  0.06720354  0.08512293     0.09500
Cu32       Cu  0.86721440  0.08118481  0.04304247     0.44200
Cu33       Cu  0.83439591  0.08425941  0.05742315     0.42000
Cu34       Cu  0.84218874  0.09804273  0.02436064     0.43900
N35         N  0.87120225  0.09159921  0.02571609    -0.34100
N36         N  0.86206890  0.09821282  0.01892523    -0.28400
C37         C  0.86793625  0.10449042  0.00860091    -0.04500
C38         C  0.88138070  0.10154296  0.00891263     0.07700
C39         C  0.88309093  0.09334559  0.01987949     0.01500
H40         H  0.86280656  0.11071316  0.00143025     0.09200
H41         H  0.89232334  0.08918912  0.02355345     0.08200
N42         N  0.82313012  0.09585681  0.03193981    -0.35600
N43         N  0.82027247  0.09140005  0.04403425    -0.27800
C44         C  0.80696616  0.09132612  0.04558201    -0.03000
C45         C  0.80123331  0.09579441  0.03386681     0.05600
C46         C  0.81175257  0.09854816  0.02544042    -0.01100
H47         H  0.80184698  0.08789624  0.05443226     0.08800
H48         H  0.81121288  0.10223869  0.01531446     0.07600
N49         N  0.16878088  0.91266262  0.98360436    -0.26800
N50         N  0.15707770  0.91443486  0.98934952    -0.34600
C51         C  0.14963290  0.92249546  0.98165598     0.01600
C52         C  0.15694307  0.92590362  0.97046847     0.07600
C53         C  0.16902380  0.91943846  0.97197632    -0.05500
H54         H  0.13965757  0.92571768  0.98410053     0.08300
H55         H  0.17754795  0.92008781  0.96542843     0.09500
Cu56       Cu  0.15164596  0.90589558  0.00743543     0.44200
Cu57       Cu  0.18423559  0.90249914  0.99291653     0.42000
Cu58       Cu  0.17664282  0.88782554  0.02560200     0.43900
N59         N  0.14760258  0.89484712  0.02450268    -0.34100
N60         N  0.15663328  0.88771728  0.03093070    -0.28400
C61         C  0.15069889  0.88123599  0.04111050    -0.04500
C62         C  0.13732276  0.88458835  0.04111942     0.07700
C63         C  0.13574351  0.89324434  0.03049014     0.01500
H64         H  0.15577945  0.87474733  0.04807832     0.09200
H65         H  0.12659679  0.89792192  0.02723796     0.08200
N66         N  0.19579627  0.89084262  0.01829124    -0.35600
N67         N  0.19848220  0.89555865  0.00625200    -0.27800
C68         C  0.21175026  0.89657939  0.00483446    -0.03000
C69         C  0.21768517  0.89253615  0.01658275     0.05600
C70         C  0.20730197  0.88898024  0.02491319     0.03700
H71         H  0.21667703  0.90062731  0.99613508     0.08800
H72         H  0.20802810  0.88549428  0.03510065     0.07600
N73         N  0.12199589  0.99248440  0.88359805    -0.26800
N74         N  0.11529588  0.99866715  0.89310884    -0.34600
C75         C  0.11832720  0.99309326  0.90491729     0.01600
C76         C  0.12742529  0.98296340  0.90279679     0.07600
C77         C  0.12955037  0.98282755  0.88914692    -0.05500
H78         H  0.11426020  0.99625563  0.91438971     0.08300
H79         H  0.13599266  0.97616088  0.88364408     0.09500
Cu80       Cu  0.10276480  0.01483961  0.88979697     0.44200
Cu81       Cu  0.12020447  0.99768142  0.86359503     0.42000
Cu82       Cu  0.10237565  0.02917476  0.85695912     0.43900
N83         N  0.09252541  0.03224629  0.88510547    -0.34100
N84         N  0.09287344  0.03799813  0.87323900    -0.28400
C85         C  0.08566600  0.04936696  0.87368504    -0.04500
C86         C  0.08041582  0.05068229  0.88639987     0.07700
C87         C  0.08496326  0.03963730  0.89333486     0.01500
H88         H  0.08405735  0.05596901  0.86529528     0.09200
H89         H  0.08301613  0.03718998  0.90365829     0.08200
N90         N  0.11011547  0.01662369  0.84225520    -0.35600
N91         N  0.11614099  0.00510203  0.84463829    -0.27800
C92         C  0.11851267  0.99891219  0.83296365    -0.03000
C93         C  0.11382837  0.00693608  0.82274971     0.05600
C94         C  0.10865638  0.01809640  0.82899238     0.03700
H95         H  0.12301319  0.98914562  0.83202887     0.08800
H96         H  0.10360881  0.02639204  0.82427389     0.07600
N97         N  0.92743497  0.95693068  0.18277139    -0.26800
N98         N  0.92867892  0.96279785  0.17102705    -0.34600
C99         C  0.93652376  0.95533655  0.16316854     0.01600
C100        C  0.94034131  0.94414003  0.17021917     0.07600
C101        C  0.93439752  0.94542095  0.18263124    -0.05500
H102        H  0.93916292  0.95784582  0.15301209     0.08300
H103        H  0.93530653  0.93867444  0.19101319     0.09500
Cu104      Cu  0.91920448  0.98032143  0.16584780     0.44200
Cu105      Cu  0.91703998  0.96572247  0.19846266     0.42000
Cu106      Cu  0.90239052  0.99882578  0.19084686     0.43900
N107        N  0.90686663  0.99621713  0.16159208    -0.34100
N108        N  0.90037066  0.00307791  0.17074877    -0.28400
C109        C  0.89253713  0.01215560  0.16466503    -0.04500
C110        C  0.89431454  0.01087181  0.15103105     0.07700
C111        C  0.90346277  0.00072473  0.14947089     0.01500
H112        H  0.88605526  0.01909549  0.16977138     0.09200
H113        H  0.90721897  0.99673871  0.14018363     0.08200
N114        N  0.90440529  0.99080073  0.20978002    -0.35600
N115        N  0.90883060  0.97864531  0.21252492    -0.27800
C116        C  0.90816584  0.97668326  0.22579796    -0.03000
C117        C  0.90331519  0.98820604  0.23161248     0.05600
C118        C  0.90108741  0.99694281  0.22119937     0.03700
H119        H  0.91148193  0.96774473  0.23087091     0.08800
H120        H  0.89729696  0.00703239  0.22184425     0.07600
N121        N  0.00639607  0.85855186  0.13277775    -0.26800
N122        N  0.01316106  0.86764615  0.12605524    -0.34600
C123        C  0.00791193  0.87976270  0.12844107     0.01600
C124        C  0.99739508  0.87824874  0.13720520     0.07600
C125        C  0.99674565  0.86468478  0.13980695    -0.05500
H126        H  0.01158338  0.88898917  0.12420669     0.08300
H127        H  0.98960736  0.85962086  0.14609897     0.09500
Cu128      Cu  0.02963899  0.86315279  0.11451718     0.44200
Cu129      Cu  0.01040086  0.83821045  0.13119448     0.42000
Cu130      Cu  0.04073162  0.82874102  0.11313172     0.43900
N131        N  0.04729843  0.85715380  0.10573706    -0.34100
N132        N  0.05175913  0.84472863  0.10562015    -0.28400
C133        C  0.06371333  0.84450833  0.09949624    -0.04500
C134        C  0.06675680  0.85738578  0.09546363     0.07700
C135        C  0.05612973  0.86510147  0.09958006     0.01500
H136        H  0.06951607  0.83559182  0.09770060     0.09200
H137        H  0.05487327  0.87573963  0.09819147     0.08200
N138        N  0.02690807  0.81511178  0.12064839    -0.35600
N139        N  0.01583380  0.81859882  0.12689199    -0.27800
C140        C  0.00887756  0.80751922  0.12990173    -0.03000
C141        C  0.01594938  0.79652080  0.12549674     0.05600
C142        C  0.02734094  0.80169208  0.11971583     0.03700
H143        H  0.99941954  0.80748450  0.13504684     0.08800
H144        H  0.03526330  0.79612554  0.11498873     0.07600
N145        N  0.89793876  0.49442432  0.66926002    -0.26800
N146        N  0.90472645  0.50101657  0.66011455    -0.34600
C147        C  0.90238316  0.49555353  0.64812313     0.01600
C148        C  0.89358241  0.48510064  0.64981875     0.07600
C149        C  0.89095067  0.48463586  0.66334584    -0.05500
H150        H  0.90652404  0.49913756  0.63882722     0.08300
H151        H  0.88445259  0.47775016  0.66850874     0.09500
Cu152      Cu  0.91594873  0.51770483  0.66448905     0.44200
Cu153      Cu  0.89873094  0.49947394  0.68918087     0.42000
Cu154      Cu  0.91582558  0.53063426  0.69842705     0.43900
N155        N  0.92514964  0.53524084  0.67013041    -0.34100
N156        N  0.92505729  0.54027825  0.68231851    -0.28400
C157        C  0.93189064  0.55188401  0.68218423    -0.04500
C158        C  0.93644921  0.55412464  0.66929918     0.07700
C159        C  0.93198373  0.54338079  0.66199655     0.01500
H160        H  0.93354454  0.55811438  0.69082567     0.09200
H161        H  0.93358455  0.54157897  0.65148517     0.08200
N162        N  0.90683960  0.51751022  0.71202695    -0.35600
N163        N  0.90119428  0.50610885  0.70850280    -0.27800
C164        C  0.89753603  0.49936140  0.71947687    -0.03000
C165        C  0.90083777  0.50688185  0.73048656     0.05600
C166        C  0.90663814  0.51837863  0.72545142     0.03700
H167        H  0.89290810  0.48961453  0.71941744     0.08800
H168        H  0.91092702  0.52647470  0.73113023     0.07600
N169        N  0.08459029  0.45663140  0.36663080    -0.26800
N170        N  0.08290670  0.46287803  0.37811211    -0.34600
C171        C  0.07526994  0.45535728  0.38613622     0.01600
C172        C  0.07199531  0.44374306  0.37946417     0.07600
C173        C  0.07810461  0.44484483  0.36712014    -0.05500
H174        H  0.07240107  0.45813932  0.39614658     0.08300
H175        H  0.07764837  0.43774749  0.35901741     0.09500
Cu176      Cu  0.09129340  0.48117682  0.38278512     0.44200
Cu177      Cu  0.09496153  0.46518762  0.35074621     0.42000
Cu178      Cu  0.11048460  0.49780149  0.35802713     0.43900
N179        N  0.10216949  0.49829756  0.38665505    -0.34100
N180        N  0.10979522  0.50422535  0.37770744    -0.28400
C181        C  0.11621309  0.51448329  0.38355906    -0.04500
C182        C  0.11226162  0.51507541  0.39677803     0.07700
C183        C  0.10335352  0.50467663  0.39836374     0.01500
H184        H  0.12315968  0.52104067  0.37855954     0.09200
H185        H  0.09835433  0.50172042  0.40744773     0.08200
N186        N  0.10819704  0.48979037  0.33905137    -0.35600
N187        N  0.10312076  0.47788930  0.33639564    -0.27800
C188        C  0.10261363  0.47629572  0.32306436    -0.03000
C189        C  0.10735188  0.48780951  0.31709565     0.05600
C190        C  0.11080950  0.49612462  0.32751564     0.03700
H191        H  0.09834448  0.46773400  0.31809480     0.08800
H192        H  0.11458940  0.50620668  0.32679235     0.07600
N193        N  0.04662269  0.65497210  0.60593634    -0.26800
N194        N  0.04071203  0.64342299  0.60356009    -0.34600
C195        C  0.04831418  0.63621960  0.59523464     0.01600
C196        C  0.05962979  0.64345721  0.59232962     0.07600
C197        C  0.05828177  0.65532255  0.59927965    -0.05500
H198        H  0.04586185  0.62632248  0.59170401     0.08300
H199        H  0.06510614  0.66366819  0.59929974     0.09500
Cu200      Cu  0.02292174  0.63736833  0.61215179     0.44200
Cu201      Cu  0.03793916  0.66984642  0.61750748     0.42000
Cu202      Cu  0.00653689  0.66086490  0.63351220     0.43900
N203        N  0.00642623  0.63249491  0.62361547    -0.34100
N204        N  0.00077971  0.64100053  0.63194388    -0.28400
C205        C  0.99114610  0.63464527  0.63876668    -0.04500
C206        C  0.99059332  0.62157168  0.63439413     0.07700
C207        C  0.00039239  0.62054599  0.62475165     0.01500
H208        H  0.98501102  0.63920204  0.64636350     0.09200
H209        H  0.00325585  0.61167293  0.61932300     0.08200
N210        N  0.01389153  0.68023760  0.63245109    -0.35600
N211        N  0.02547599  0.68341113  0.62704340    -0.27800
C212        C  0.02695375  0.69675536  0.62740988    -0.03000
C213        C  0.01570754  0.70225176  0.63316620     0.05600
C214        C  0.00763623  0.69150620  0.63623346     0.03700
H215        H  0.03526830  0.70208973  0.62311363     0.08800
H216        H  0.99777044  0.69186706  0.64052848     0.07600
N217        N  0.14566345  0.60393926  0.52800024    -0.26800
N218        N  0.13620452  0.59868597  0.52051764    -0.34600
C219        C  0.12428933  0.60207596  0.52552302     0.01600
C220        C  0.12628638  0.60990934  0.53668475     0.07600
C221        C  0.13996646  0.61095481  0.53795665    -0.05500
H222        H  0.11486545  0.59909603  0.52126864     0.08300
H223        H  0.14536814  0.61621983  0.54564846     0.09500
Cu224      Cu  0.13972681  0.58752436  0.50351977     0.44200
Cu225      Cu  0.16576064  0.60083050  0.52408820     0.42000
Cu226      Cu  0.17318734  0.58720897  0.49088584     0.43900
N227        N  0.14494647  0.57872708  0.48559778    -0.34100
N228        N  0.15707984  0.57914521  0.48053018    -0.28400
C229        C  0.15702080  0.57292456  0.46861500    -0.04500
C230        C  0.14424808  0.56831121  0.46618761     0.07700
C231        C  0.13689721  0.57213456  0.47717568     0.01500
H232        H  0.16568559  0.57157499  0.46236587     0.09200
H233        H  0.12643118  0.57031612  0.47890709     0.08200
N234        N  0.18757642  0.59241931  0.50496398    -0.35600
N235        N  0.18483584  0.59657144  0.51718916    -0.27800
C236        C  0.19625905  0.59760527  0.52412215    -0.03000
C237        C  0.20669812  0.59416388  0.51583777     0.05600
C238        C  0.20084843  0.59098776  0.50375370     0.03700
H239        H  0.19691475  0.60070575  0.53442736     0.08800
H240        H  0.20582388  0.58743674  0.49487588     0.07600
N241        N  0.00900038  0.35564539  0.41861982    -0.26800
N242        N  0.00259394  0.36549916  0.42458968    -0.34600
C243        C  0.00841353  0.37714798  0.42148864     0.01600
C244        C  0.01894200  0.37464901  0.41303207     0.07600
C245        C  0.01906735  0.36088199  0.41136806    -0.05500
H246        H  0.00505774  0.38679726  0.42497489     0.08300
H247        H  0.02599138  0.35511865  0.40545082     0.09500
Cu248      Cu  0.98569635  0.36309548  0.43609707     0.44200
Cu249      Cu  0.00323660  0.33570316  0.42110703     0.42000
Cu250      Cu  0.97017138  0.33101832  0.43654884     0.43900
N251        N  0.96779104  0.35944253  0.44556368    -0.34100
N252        N  0.96167306  0.34777990  0.44520982    -0.28400
C253        C  0.95009686  0.34875405  0.45189520    -0.04500
C254        C  0.94901767  0.36161144  0.45679509     0.07700
C255        C  0.96040313  0.36811000  0.45261232     0.01500
H256        H  0.94316687  0.34062881  0.45336809     0.09200
H257        H  0.96307415  0.37840756  0.45442718     0.08200
N258        N  0.98247467  0.31555437  0.43040639    -0.35600
N259        N  0.99458996  0.31717179  0.42546579    -0.27800
C260        C  0.00029668  0.30507978  0.42411136    -0.03000
C261        C  0.99132157  0.29544853  0.42822879     0.05600
C262        C  0.98011442  0.30243090  0.43209862     0.03700
H263        H  0.01032148  0.30342691  0.42055424     0.08800
H264        H  0.97113922  0.29834129  0.43642805     0.07600
N265        N  0.84777550  0.42263684  0.56564861    -0.26800
N266        N  0.85979144  0.42343372  0.56037442    -0.34600
C267        C  0.86786400  0.42996894  0.56873811     0.01600
C268        C  0.86065813  0.43347060  0.57990105     0.07600
C269        C  0.84793938  0.42861280  0.57770339    -0.05500
H270        H  0.87820121  0.43215978  0.56671300     0.08300
H271        H  0.83935428  0.42983049  0.58408780     0.09500
Cu272      Cu  0.86500093  0.41605267  0.54196635     0.44200
Cu273      Cu  0.83184908  0.41454269  0.55513730     0.42000
Cu274      Cu  0.83964835  0.40302891  0.52091674     0.43900
N275        N  0.86909681  0.40670846  0.52417497    -0.34100
N276        N  0.85983069  0.40149484  0.51644026    -0.28400
C277        C  0.86579479  0.39507655  0.50626329    -0.04500
C278        C  0.87943796  0.39647867  0.50770063     0.07700
C279        C  0.88115416  0.40395239  0.51910859     0.01500
H280        H  0.86060360  0.38969657  0.49850718     0.09200
H281        H  0.89048661  0.40677219  0.52367351     0.08200
N282        N  0.82053324  0.40449675  0.52885501    -0.35600
N283        N  0.81783230  0.40805916  0.54127972    -0.27800
C284        C  0.80460215  0.40742165  0.54320339    -0.03000
C285        C  0.79867378  0.40339539  0.53143333     0.05600
C286        C  0.80904808  0.40168283  0.52254228     0.03700
H287        H  0.79965854  0.40998198  0.55243223     0.08800
H288        H  0.80832080  0.39852172  0.51225936     0.07600
N289        N  0.03972355  0.33979887  0.94845748    -0.26800
N290        N  0.03415018  0.35177243  0.94852584    -0.34600
C291        C  0.04259684  0.36056909  0.95405431     0.01600
C292        C  0.05411401  0.35392208  0.95758872     0.07600
C293        C  0.05197506  0.34074339  0.95390005    -0.05500
H294        H  0.04054598  0.37110210  0.95527568     0.08300
H295        H  0.05875471  0.33244880  0.95517514     0.09500
Cu296      Cu  0.01559261  0.35608562  0.94051726     0.44200
Cu297      Cu  0.03007577  0.32283192  0.94096243     0.42000
Cu298      Cu  0.99758784  0.32941816  0.92543452     0.43900
N299        N  0.99815973  0.35895883  0.92980088    -0.34100
N300        N  0.99174643  0.34920207  0.92372589    -0.28400
C301        C  0.98157613  0.35440900  0.91666100    -0.04500
C302        C  0.98152943  0.36808605  0.91856344     0.07700
C303        C  0.99214166  0.37060744  0.92697743     0.01500
H304        H  0.97473125  0.34867132  0.91064679     0.09200
H305        H  0.99550657  0.38024459  0.93045930     0.08200
N306        N  0.00574490  0.31054735  0.92788113    -0.35600
N307        N  0.01758600  0.30803266  0.93309490    -0.27800
C308        C  0.01975990  0.29474190  0.93262995    -0.03000
C309        C  0.00872230  0.28867447  0.92699313     0.05600
C310        C  0.00005433  0.29900230  0.92414967     0.03700
H311        H  0.02862527  0.28984064  0.93630231     0.08800
H312        H  0.99034353  0.29823031  0.91957570     0.07600
N313        N  0.89177019  0.49596207  0.88139673    -0.26800
N314        N  0.89883247  0.48938805  0.89036003    -0.34600
C315        C  0.89724651  0.49521128  0.90232590     0.01600
C316        C  0.88866572  0.50590405  0.90085361     0.07600
C317        C  0.88536919  0.50610796  0.88744022    -0.05500
H318        H  0.90176012  0.49172158  0.91148147     0.08300
H319        H  0.87882819  0.51308169  0.88244158     0.09500
Cu320      Cu  0.90933356  0.47215968  0.88588511     0.44200
Cu321      Cu  0.89155078  0.49042195  0.86147050     0.42000
Cu322      Cu  0.90665406  0.45792678  0.85274733     0.43900
N323        N  0.91710322  0.45376216  0.88052549    -0.34100
N324        N  0.91585738  0.44816453  0.86865467    -0.28400
C325        C  0.92189079  0.43610797  0.86889009    -0.04500
C326        C  0.92718747  0.43417002  0.88151581     0.07700
C327        C  0.92396196  0.44554622  0.88855254     0.01500
H328        H  0.92262918  0.42943831  0.86044831     0.09200
H329        H  0.92646508  0.44773691  0.89880899     0.08200
N330        N  0.89901075  0.47154718  0.83896665    -0.35600
N331        N  0.89391838  0.48330854  0.84218144    -0.27800
C332        C  0.89129415  0.49018702  0.83097011    -0.03000
C333        C  0.89482006  0.48240486  0.82016848     0.05600
C334        C  0.89959755  0.47062623  0.82557782     0.03700
H335        H  0.88745109  0.50027387  0.83074533     0.08800
H336        H  0.90382017  0.46228050  0.82020459     0.07600
N337        N  0.00679994  0.64480672  0.13005642    -0.26800
N338        N  0.00093219  0.63626020  0.12195541    -0.34600
C339        C  0.00696064  0.62431412  0.12298364     0.01600
C340        C  0.01706038  0.62533407  0.13227638     0.07600
C341        C  0.01668268  0.63847694  0.13659160    -0.05500
H342        H  0.00397677  0.61544748  0.11761710     0.08300
H343        H  0.02306189  0.64308541  0.14394506     0.09500
Cu344      Cu  0.98444706  0.64119715  0.11059774     0.44200
Cu345      Cu  0.00079017  0.66464598  0.13129790     0.42000
Cu346      Cu  0.97002891  0.67426952  0.11335832     0.43900
N347        N  0.96714078  0.64701708  0.10101899    -0.34100
N348        N  0.96149370  0.65889550  0.10210641    -0.28400
C349        C  0.95025485  0.65898933  0.09470882    -0.04500
C350        C  0.94889026  0.64658613  0.08869773     0.07700
C351        C  0.95978109  0.63931434  0.09295187     0.01500
H352        H  0.94366617  0.66746899  0.09366807     0.09200
H353        H  0.96219299  0.62909685  0.09045583     0.08200
N354        N  0.98249598  0.68758965  0.12348876    -0.35600
N355        N  0.99374046  0.68410802  0.12944748    -0.27800
C356        C  0.00026455  0.69520249  0.13322911    -0.03000
C357        C  0.99273892  0.70619359  0.12966375     0.05600
C358        C  0.98149885  0.70101558  0.12361232     0.03700
H359        H  0.00999584  0.69525933  0.13782905     0.08800
H360        H  0.97363444  0.70661980  0.11882145     0.07600
N361        N  0.86259427  0.61002109  0.02266112    -0.26800
N362        N  0.87151726  0.60158382  0.01785700    -0.34600
C363        C  0.88340009  0.60419012  0.02344704     0.01600
C364        C  0.88194092  0.61482735  0.03210163     0.07600
C365        C  0.86862803  0.61831728  0.03132749    -0.05500
H366        H  0.89244168  0.59870097  0.02139169     0.08300
H367        H  0.86360747  0.62604372  0.03693065     0.09500
Cu368      Cu  0.86732896  0.58706559  0.00363588     0.44200
Cu369      Cu  0.84245209  0.60925123  0.01778114     0.42000
Cu370      Cu  0.83487558  0.58944554  0.98858469     0.43900
N371        N  0.86139284  0.57553519  0.98745734    -0.34100
N372        N  0.84975831  0.57700361  0.98148865    -0.28400
C373        C  0.84929772  0.56899152  0.97074147    -0.04500
C374        C  0.86116432  0.56206157  0.96997497     0.07700
C375        C  0.86859235  0.56640703  0.98075326     0.01500
H376        H  0.84094555  0.56828364  0.96398392     0.09200
H377        H  0.87865936  0.56353187  0.98325934     0.08200
N378        N  0.82055072  0.59898804  0.99998366    -0.35600
N379        N  0.82316250  0.60558316  0.01109198    -0.27800
C380        C  0.81159110  0.60850906  0.01722729    -0.03000
C381        C  0.80125698  0.60367474  0.00949397     0.05600
C382        C  0.80730559  0.59777366  0.99861862     0.03700
H383        H  0.81078178  0.61342161  0.02678976     0.08800
H384        H  0.80248820  0.59218252  0.99076621     0.07600
N385        N  0.14448137  0.39839028  0.01231197    -0.26800
N386        N  0.13526180  0.40430031  0.01963625    -0.34600
C387        C  0.12322258  0.40161828  0.01447268     0.01600
C388        C  0.12487407  0.39344017  0.00350188     0.07600
C389        C  0.13848031  0.39152430  0.00243421    -0.05500
H390        H  0.11390738  0.40497232  0.01870842     0.08300
H391        H  0.14363112  0.38562984  0.99502186     0.09500
Cu392      Cu  0.13911091  0.41457095  0.03721039     0.44200
Cu393      Cu  0.16472999  0.40016657  0.01637649     0.42000
Cu394      Cu  0.17225798  0.41413338  0.04962635     0.43900
N395        N  0.14431149  0.42247936  0.05563488    -0.34100
N396        N  0.15650244  0.42199850  0.06052970    -0.28400
C397        C  0.15663060  0.42801961  0.07255920    -0.04500
C398        C  0.14388040  0.43256295  0.07526570     0.07700
C399        C  0.13637217  0.42886288  0.06432728     0.01500
H400        H  0.16541522  0.42939763  0.07862624     0.09200
H401        H  0.12591671  0.43083980  0.06271225     0.08200
N402        N  0.18642645  0.40809343  0.03576788    -0.35600
N403        N  0.18384696  0.40363592  0.02361427    -0.27800
C404        C  0.19544154  0.40159168  0.01717217    -0.03000
C405        C  0.20573498  0.40475060  0.02576372     0.05600
C406        C  0.19966961  0.40877000  0.03742912     0.03700
H407        H  0.19629704  0.39789849  0.00707725     0.08800
H408        H  0.20452874  0.41218986  0.04641723     0.07600
N409        N  0.07670355  0.53842479  0.17742187    -0.26800
N410        N  0.07542260  0.53253225  0.16570271    -0.34600
C411        C  0.06819168  0.54037971  0.15758971     0.01600
C412        C  0.06482686  0.55186508  0.16443612     0.07600
C413        C  0.07038356  0.55030953  0.17699591    -0.05500
H414        H  0.06599062  0.53808748  0.14728944     0.08300
H415        H  0.06996197  0.55733483  0.18516560     0.09500
Cu416      Cu  0.08479228  0.51484200  0.16052010     0.44200
Cu417      Cu  0.08712881  0.52970068  0.19322131     0.42000
Cu418      Cu  0.10509287  0.49865396  0.18475857     0.43900
N419        N  0.09746411  0.49917586  0.15590282    -0.34100
N420        N  0.10545115  0.49345265  0.16467335    -0.28400
C421        C  0.11311400  0.48439714  0.15832918    -0.04500
C422        C  0.10964393  0.48438540  0.14495542     0.07700
C423        C  0.09967904  0.49385759  0.14381567     0.01500
H424        H  0.12058149  0.47824797  0.16309671     0.09200
H425        H  0.09461595  0.49691735  0.13479922     0.08200
N426        N  0.10237178  0.50583486  0.20404512    -0.35600
N427        N  0.09641956  0.51722694  0.20711937    -0.27800
C428        C  0.09637684  0.51860041  0.22048929    -0.03000
C429        C  0.10235885  0.50746473  0.22605858     0.05600
C430        C  0.10602355  0.49959801  0.21535516     0.03700
H431        H  0.09179987  0.52681123  0.22578133     0.08800
H432        H  0.11087080  0.48995985  0.21574182     0.07600
N433        N  0.40555812  0.49144189  0.88364138    -0.26800
N434        N  0.41283337  0.49775712  0.89259343    -0.34600
C435        C  0.41061918  0.49247725  0.90468648     0.01600
C436        C  0.40143952  0.48235770  0.90335384     0.07600
C437        C  0.39839242  0.48192973  0.88987388    -0.05500
H438        H  0.41511053  0.49600370  0.91382922     0.08300
H439        H  0.39143623  0.47531468  0.88498739     0.09500
Cu440      Cu  0.42451627  0.51399151  0.88824272     0.44200
Cu441      Cu  0.40596807  0.49670864  0.86354980     0.42000
Cu442      Cu  0.42175741  0.52892061  0.85559366     0.43900
N443        N  0.43322938  0.53181629  0.88314417    -0.34100
N444        N  0.43183467  0.53772980  0.87143930    -0.28400
C445        C  0.43810597  0.54960256  0.87181910    -0.04500
C446        C  0.44372515  0.55107059  0.88432919     0.07700
C447        C  0.44045677  0.53961578  0.89122528     0.01500
H448        H  0.43859670  0.55659008  0.86360294     0.09200
H449        H  0.44285553  0.53722423  0.90146861     0.08200
N450        N  0.41354260  0.51611978  0.84146479    -0.35600
N451        N  0.40850657  0.50424434  0.84433576    -0.27800
C452        C  0.40574910  0.49782290  0.83289704    -0.03000
C453        C  0.40899607  0.50609319  0.82234203     0.05600
C454        C  0.41382039  0.51764459  0.82811278     0.03700
H455        H  0.40184901  0.48777959  0.83231331     0.08800
H456        H  0.41793773  0.52620780  0.82299152     0.07600
N457        N  0.35045739  0.42577190  0.98827005    -0.26800
N458        N  0.36134721  0.42771395  0.99539234    -0.34600
C459        C  0.37028635  0.43441525  0.98802583     0.01600
C460        C  0.36479348  0.43673241  0.97562548     0.07600
C461        C  0.35223947  0.43111252  0.97608026    -0.05500
H462        H  0.38015096  0.43710034  0.99137569     0.08300
H463        H  0.34491616  0.43099240  0.96818621     0.09500
Cu464      Cu  0.36423557  0.42021779  0.01430772     0.44200
Cu465      Cu  0.33360423  0.41629105  0.99567998     0.42000
Cu466      Cu  0.33766811  0.40071424  0.02810677     0.43900
N467        N  0.36631358  0.40850902  0.03107206    -0.34100
N468        N  0.35674585  0.40079870  0.03578899    -0.28400
C469        C  0.36157421  0.39350574  0.04595406    -0.04500
C470        C  0.37476983  0.39693231  0.04772416     0.07700
C471        C  0.37744658  0.40649102  0.03818972     0.01500
H472        H  0.35588290  0.38632224  0.05164444     0.09200
H473        H  0.38687776  0.41133178  0.03629407     0.08200
N474        N  0.31949724  0.40311719  0.01873657    -0.35600
N475        N  0.31796946  0.40841590  0.00674978    -0.27800
C476        C  0.30489774  0.40889232  0.00385066    -0.03000
C477        C  0.29792250  0.40382022  0.01460595     0.05600
C478        C  0.30748121  0.40025370  0.02385105     0.03700
H479        H  0.30076303  0.41318828  0.99486050     0.08800
H480        H  0.30584405  0.39612804  0.03368771     0.07600
N481        N  0.50359440  0.64243666  0.91830762    -0.26800
N482        N  0.50894641  0.63365063  0.92654026    -0.34600
C483        C  0.50285145  0.62185152  0.92508468     0.01600
C484        C  0.49322250  0.62320175  0.91540586     0.07600
C485        C  0.49390988  0.63638983  0.91126190    -0.05500
H486        H  0.50549847  0.61285241  0.93044433     0.08300
H487        H  0.48791299  0.64120081  0.90369574     0.09500
Cu488      Cu  0.52507893  0.63757169  0.93848499     0.44200
Cu489      Cu  0.51015040  0.66204869  0.91763467     0.42000
Cu490      Cu  0.54132775  0.66924858  0.93616428     0.43900
N491        N  0.54308706  0.64145123  0.94738215    -0.34100
N492        N  0.54959628  0.65284391  0.94617708    -0.28400
C493        C  0.56130450  0.65172154  0.95268710    -0.04500
C494        C  0.56198564  0.63907201  0.95832809     0.07700
C495        C  0.55027194  0.63287804  0.95473280     0.01500
H496        H  0.56861908  0.65958897  0.95350397     0.09200
H497        H  0.54722410  0.62280341  0.95713519     0.08200
N498        N  0.52921405  0.68367063  0.92705764    -0.35600
N499        N  0.51794914  0.68096926  0.92075751    -0.27800
C500        C  0.51193974  0.69247679  0.91738067    -0.03000
C501        C  0.51979566  0.70295181  0.92159109     0.05600
C502        C  0.53071169  0.69704407  0.92761122     0.03700
H503        H  0.50238865  0.69314863  0.91245788     0.08800
H504        H  0.53879336  0.70208723  0.93262660     0.07600
N505        N  0.45024301  0.34970793  0.11796471    -0.26800
N506        N  0.45420537  0.36184066  0.12123454    -0.34600
C507        C  0.44585805  0.37083517  0.11587518     0.01600
C508        C  0.43610759  0.36400698  0.10900374     0.07600
C509        C  0.43909907  0.35063576  0.11060241    -0.05500
H510        H  0.44719078  0.38153738  0.11639551     0.08300
H511        H  0.43417968  0.34228076  0.10589019     0.09500
Cu512      Cu  0.47175350  0.36575284  0.13110538     0.44200
Cu513      Cu  0.46172217  0.33288528  0.12135498     0.42000
Cu514      Cu  0.49627318  0.33961211  0.13134309     0.43900
N515        N  0.49086547  0.36838394  0.13806269    -0.34100
N516        N  0.50027393  0.35918064  0.13740315    -0.28400
C517        C  0.51181093  0.36458036  0.14167352    -0.04500
C518        C  0.50935959  0.37767751  0.14541241     0.07700
C519        C  0.49599699  0.37970528  0.14301156     0.01500
H520        H  0.52119160  0.35931507  0.14224280     0.09200
H521        H  0.49046723  0.38887145  0.14438754     0.08200
N522        N  0.48881777  0.32074951  0.12640833    -0.35600
N523        N  0.47631136  0.31836615  0.12303579    -0.27800
C524        C  0.47486677  0.30527663  0.12041414    -0.03000
C525        C  0.48703090  0.29909189  0.12222095     0.05600
C526        C  0.49563120  0.30917400  0.12603579     0.03700
H527        H  0.46566702  0.30067457  0.11724872     0.08800
H528        H  0.50610935  0.30818716  0.12828018     0.07600
N529        N  0.66366104  0.57002715  0.06366582    -0.26800
N530        N  0.65200112  0.56765708  0.05802386    -0.34600
C531        C  0.64496914  0.55937997  0.06590048     0.01600
C532        C  0.65243696  0.55656915  0.07712622     0.07600
C533        C  0.66422914  0.56350019  0.07541557    -0.05500
H534        H  0.63501230  0.55590829  0.06375211     0.08300
H535        H  0.67269062  0.56358928  0.08207542     0.09500
Cu536      Cu  0.64558712  0.57651625  0.04036695     0.44200
Cu537      Cu  0.67862609  0.58121049  0.05460395     0.42000
Cu538      Cu  0.67009747  0.59535939  0.02235617     0.43900
N539        N  0.64093082  0.58864877  0.02415332    -0.34100
N540        N  0.64995084  0.59576332  0.01770784    -0.28400
C541        C  0.64383079  0.60333699  0.00846380    -0.04500
C542        C  0.63029500  0.60085967  0.00909260     0.07700
C543        C  0.62881904  0.59145900  0.01911923     0.01500
H544        H  0.64886600  0.61028501  0.00192532     0.09200
H545        H  0.61958957  0.58726590  0.02275404     0.08200
N546        N  0.68941469  0.59425369  0.02967996    -0.35600
N547        N  0.69247265  0.58974529  0.04170092    -0.27800
C548        C  0.70575367  0.59044973  0.04334884    -0.03000
C549        C  0.71130124  0.59546361  0.03174382     0.05600
C550        C  0.70067132  0.59772230  0.02329523     0.03700
H551        H  0.71101514  0.58701525  0.05211497     0.08800
H552        H  0.70108867  0.60152006  0.01320194     0.07600
N553        N  0.61472045  0.49859746  0.16841131    -0.26800
N554        N  0.60966145  0.48994954  0.15985868    -0.34600
C555        C  0.61340592  0.49329328  0.14743661     0.01600
C556        C  0.62128259  0.50457724  0.14812477     0.07600
C557        C  0.62198285  0.50764451  0.16158677    -0.05500
H558        H  0.61028320  0.48808448  0.13853310     0.08300
H559        H  0.62687658  0.51616737  0.16601417     0.09500
Cu560      Cu  0.59679040  0.47472370  0.16509224     0.44200
Cu561      Cu  0.60989627  0.49833350  0.18870847     0.42000
Cu562      Cu  0.58069015  0.47762252  0.19680424     0.43900
N563        N  0.58198517  0.46183782  0.17133120    -0.34100
N564        N  0.57544636  0.46326550  0.18267462    -0.28400
C565        C  0.56589436  0.45384484  0.18334642    -0.04500
C566        C  0.56664528  0.44605748  0.17196000     0.07700
C567        C  0.57696713  0.45140183  0.16459402     0.01500
H568        H  0.55904881  0.45263082  0.19158249     0.09200
H569        H  0.58037846  0.44816662  0.15488980     0.08200
N570        N  0.59008591  0.49048017  0.21020394    -0.35600
N571        N  0.60115425  0.49717665  0.20762487    -0.27800
C572        C  0.60532438  0.50314837  0.21892724    -0.03000
C573        C  0.59630514  0.50032099  0.22896816     0.05600
C574        C  0.58677061  0.49232614  0.22307987     0.03700
H575        H  0.61420754  0.50917603  0.21974643     0.08800
H576        H  0.57835556  0.48769196  0.22795351     0.07600
N577        N  0.37006521  0.89584751  0.02298831    -0.26800
N578        N  0.37939197  0.90111770  0.03063748    -0.34600
C579        C  0.39138696  0.89811885  0.02553027     0.01600
C580        C  0.38951708  0.89047523  0.01423582     0.07600
C581        C  0.37588515  0.88921898  0.01288909    -0.05500
H582        H  0.40078174  0.90102555  0.02990484     0.08300
H583        H  0.37057223  0.88383054  0.00522057     0.09500
Cu584      Cu  0.37553554  0.91165533  0.04799921     0.44200
Cu585      Cu  0.34988366  0.89785225  0.02666290     0.42000
Cu586      Cu  0.34091311  0.91778651  0.05545772     0.43900
N587        N  0.36916517  0.92267238  0.06429261    -0.34100
N588        N  0.35652951  0.92552036  0.06660921    -0.28400
C589        C  0.35576663  0.93374296  0.07718569    -0.04500
C590        C  0.36850194  0.93593882  0.08188122     0.07700
C591        C  0.37675635  0.92873777  0.07352144     0.01500
H592        H  0.34661531  0.93774963  0.08120423     0.09200
H593        H  0.38750560  0.92832307  0.07382040     0.08200
N594        N  0.32714363  0.90838807  0.04319041    -0.35600
N595        N  0.33042965  0.90143503  0.03248210    -0.27800
C596        C  0.31928484  0.89709790  0.02647232    -0.03000
C597        C  0.30848674  0.90137749  0.03385747     0.05600
C598        C  0.31381075  0.90844987  0.04440632     0.03700
H599        H  0.31908343  0.89113981  0.01748499     0.08800
H600        H  0.30839285  0.91347842  0.05225177     0.07600
N601        N  0.51256098  0.85558162  0.91800927    -0.26800
N602        N  0.50687964  0.86440681  0.92596106    -0.34600
C603        C  0.51209301  0.87652486  0.92361384     0.01600
C604        C  0.52148415  0.87530249  0.91365280     0.07600
C605        C  0.52155549  0.86188701  0.91030190    -0.05500
H606        H  0.50910865  0.88558799  0.92865624     0.08300
H607        H  0.52764724  0.85706532  0.90283326     0.09500
Cu608      Cu  0.49183665  0.85968154  0.93910861     0.44200
Cu609      Cu  0.50750812  0.83546820  0.91831214     0.42000
Cu610      Cu  0.47784091  0.82646979  0.93770888     0.43900
N611        N  0.47553581  0.85373010  0.95006841    -0.34100
N612        N  0.46984095  0.84187522  0.94911724    -0.28400
C613        C  0.45887414  0.84174683  0.95685395    -0.04500
C614        C  0.45785457  0.85403634  0.96306447     0.07700
C615        C  0.46856627  0.86135280  0.95855665     0.01500
H616        H  0.45223379  0.83332642  0.95796041     0.09200
H617        H  0.47089094  0.87162839  0.96090771     0.08200
N618        N  0.48977906  0.81280122  0.92759771    -0.35600
N619        N  0.50075764  0.81603963  0.92105983    -0.27800
C620        C  0.50693910  0.80479929  0.91711108    -0.03000
C621        C  0.49943812  0.79398742  0.92122028     0.05600
C622        C  0.48859752  0.79940963  0.92775547     0.03700
H623        H  0.51634354  0.80453015  0.91187547     0.08800
H624        H  0.48080992  0.79400584  0.93288468     0.07600
N625        N  0.66153535  0.08084244  0.98042728    -0.26800
N626        N  0.64920304  0.08090903  0.98503019    -0.34600
C627        C  0.64145712  0.07373357  0.97681663     0.01600
C628        C  0.64922072  0.06904240  0.96648558     0.07600
C629        C  0.66190088  0.07376780  0.96901147    -0.05500
H630        H  0.63097530  0.07187139  0.97838800     0.08300
H631        H  0.67083405  0.07164174  0.96338447     0.09500
Cu632      Cu  0.64329999  0.09019900  0.00253854     0.44200
Cu633      Cu  0.67746969  0.08886251  0.99091352     0.42000
Cu634      Cu  0.66908424  0.10336106  0.02330187     0.43900
N635        N  0.63953400  0.10070948  0.01995483    -0.34100
N636        N  0.64900602  0.10600116  0.02739267    -0.28400
C637        C  0.64337385  0.11277532  0.03753000    -0.04500
C638        C  0.62971345  0.11148487  0.03650422     0.07700
C639        C  0.62763504  0.10374498  0.02527748     0.01500
H640        H  0.64882146  0.11805702  0.04517708     0.09200
H641        H  0.61816591  0.10074119  0.02113457     0.08200
N642        N  0.68837960  0.09990998  0.01675753    -0.35600
N643        N  0.69143835  0.09522342  0.00481316    -0.27800
C644        C  0.70476255  0.09463533  0.00366401    -0.03000
C645        C  0.71031858  0.09899569  0.01548366     0.05600
C646        C  0.69966641  0.10221776  0.02358157     0.03700
H647        H  0.71000830  0.09098781  0.99498262     0.08800
H648        H  0.70006475  0.10606201  0.03364630     0.07600
N649        N  0.58556202  0.95823203  0.86762158    -0.26800
N650        N  0.58366052  0.96445041  0.87908524    -0.34600
C651        C  0.57556777  0.95714532  0.88681906     0.01600
C652        C  0.57221503  0.94569662  0.87997987     0.07600
C653        C  0.57875106  0.94663642  0.86784919    -0.05500
H654        H  0.57254803  0.95990749  0.89679208     0.08300
H655        H  0.57844263  0.93952627  0.85974954     0.09500
Cu656      Cu  0.59248595  0.98219854  0.88441288     0.44200
Cu657      Cu  0.59684884  0.96643038  0.85217192     0.42000
Cu658      Cu  0.61227552  0.99872514  0.86034097     0.43900
N659        N  0.60411203  0.99846864  0.88898465    -0.34100
N660        N  0.61175564  0.00452528  0.88015360    -0.28400
C661        C  0.61893940  0.01398308  0.88638281    -0.04500
C662        C  0.61557835  0.01381842  0.89976075     0.07700
C663        C  0.60612355  0.00388977  0.90104670     0.01500
H664        H  0.62622425  0.02031629  0.88158480     0.09200
H665        H  0.60137235  0.00052145  0.91012240     0.08200
N666        N  0.61159369  0.99052892  0.84138665    -0.35600
N667        N  0.60657596  0.97868252  0.83841376    -0.27800
C668        C  0.60768793  0.97674539  0.82516302    -0.03000
C669        C  0.61351502  0.98797236  0.81959492     0.05600
C670        C  0.61580642  0.99648475  0.83014362     0.03700
H671        H  0.60388412  0.96813564  0.81990488     0.08800
H672        H  0.61997162  0.00642943  0.82966178     0.07600
N673        N  0.42868416  0.04786940  0.18012979    -0.26800
N674        N  0.42169984  0.04723450  0.16896928    -0.34600
C675        C  0.42532882  0.05739722  0.16094207     0.01600
C676        C  0.43521501  0.06459941  0.16727625     0.07600
C677        C  0.43714490  0.05824474  0.17936111    -0.05500
H678        H  0.42174551  0.05884511  0.15087227     0.08300
H679        H  0.44439715  0.06077818  0.18691153     0.09500
Cu680      Cu  0.40956601  0.03109996  0.16414409     0.44200
Cu681      Cu  0.42680370  0.03430086  0.19572951     0.42000
Cu682      Cu  0.41189312  0.00298285  0.18726345     0.43900
N683        N  0.40232095  0.01205204  0.16007180    -0.34100
N684        N  0.40412618  0.00169113  0.16808115    -0.28400
C685        C  0.39989134  0.99057149  0.16189494    -0.04500
C686        C  0.39494551  0.99411742  0.14954568     0.07700
C687        C  0.39659802  0.00780200  0.14869558     0.01500
H688        H  0.40039554  0.98062482  0.16608179     0.09200
H689        H  0.39446875  0.01408695  0.14017487     0.08200
N690        N  0.41731597  0.00794171  0.20665199    -0.35600
N691        N  0.42241517  0.01968198  0.20979809    -0.27800
C692        C  0.42335482  0.02058129  0.22315360    -0.03000
C693        C  0.41873780  0.00880432  0.22868622     0.05600
C694        C  0.41504007  0.00097744  0.21792877     0.03700
H695        H  0.42682323  0.02930434  0.22845965     0.08800
H696        H  0.41039425  0.99124690  0.21828927     0.07600
N697        N  0.49887385  0.14796271  0.12123988    -0.26800
N698        N  0.50819544  0.13873061  0.12001903    -0.34600
C699        C  0.50355915  0.12708987  0.12481902     0.01600
C700        C  0.49062249  0.12903483  0.12908245     0.07600
C701        C  0.48792858  0.14236105  0.12661924    -0.05500
H702        H  0.50916661  0.11786946  0.12509072     0.08300
H703        H  0.47886241  0.14768598  0.12896844     0.09500
Cu704      Cu  0.52669013  0.14235789  0.11160221     0.44200
Cu705      Cu  0.50220170  0.16789783  0.11648676     0.42000
Cu706      Cu  0.53641737  0.17645471  0.10617063     0.43900
N707        N  0.54435164  0.14779179  0.10239216    -0.34100
N708        N  0.54832314  0.16027062  0.10078033    -0.28400
C709        C  0.56000207  0.16026479  0.09413028    -0.04500
C710        C  0.56335518  0.14714012  0.09130080     0.07700
C711        C  0.55319750  0.13955670  0.09664015     0.01500
H712        H  0.56523226  0.16914260  0.09092759     0.09200
H713        H  0.55213825  0.12882442  0.09609823     0.08200
N714        N  0.52141579  0.19033882  0.11002842    -0.35600
N715        N  0.50898037  0.18722596  0.11308945    -0.27800
C716        C  0.50184181  0.19853736  0.11431958    -0.03000
C717        C  0.51019232  0.20926042  0.11211417     0.05600
C718        C  0.52252171  0.20372042  0.10945395     0.03700
H719        H  0.49142888  0.19892573  0.11701613     0.08800
H720        H  0.53161604  0.20901444  0.10716649     0.07600
N721        N  0.86039004  0.88635040  0.53091262    -0.26800
N722        N  0.87053901  0.89146555  0.52425404    -0.34600
C723        C  0.88185926  0.88860473  0.53079379     0.01600
C724        C  0.87875361  0.88124181  0.54204301     0.07600
C725        C  0.86503019  0.87997649  0.54182935    -0.05500
H726        H  0.89167817  0.89156838  0.52752117     0.08300
H727        H  0.85886830  0.87493859  0.54910498     0.09500
Cu728      Cu  0.86871454  0.90183369  0.50632202     0.44200
Cu729      Cu  0.84077217  0.88871464  0.52471283     0.42000
Cu730      Cu  0.83578122  0.90428679  0.49208080     0.43900
N731        N  0.86471348  0.91112332  0.48815798    -0.34100
N732        N  0.85274508  0.91152236  0.48269885    -0.28400
C733        C  0.85342740  0.91823952  0.47108213    -0.04500
C734        C  0.86641971  0.92240439  0.46922106     0.07700
C735        C  0.87329136  0.91774693  0.48023913     0.01500
H736        H  0.84497796  0.92042202  0.46476677     0.09200
H737        H  0.88372486  0.91920657  0.48242543     0.08200
N738        N  0.82037936  0.89859226  0.50469319    -0.35600
N739        N  0.82223461  0.89312158  0.51656715    -0.27800
C740        C  0.81034736  0.89136508  0.52246135    -0.03000
C741        C  0.80054730  0.89590919  0.51392015     0.05600
C742        C  0.80724497  0.90041229  0.50272752     0.03700
H743        H  0.80895579  0.88722595  0.53233040     0.08800
H744        H  0.80294579  0.90494286  0.49392925     0.07600
N745        N  0.10423185  0.00519852  0.67050682    -0.26800
N746        N  0.09771060  0.99825537  0.66142498    -0.34600
C747        C  0.09935871  0.00400769  0.64943507     0.01600
C748        C  0.10744366  0.01504957  0.65097308     0.07600
C749        C  0.11040465  0.01550694  0.66445585    -0.05500
H750        H  0.09539158  0.00010720  0.64020520     0.08300
H751        H  0.11667624  0.02269605  0.66946240     0.09500
Cu752      Cu  0.08793004  0.98056816  0.66546697     0.44200
Cu753      Cu  0.10441355  0.99974410  0.69056383     0.42000
Cu754      Cu  0.09186095  0.96629989  0.69843820     0.43900
N755        N  0.08007372  0.96234580  0.67108668    -0.34100
N756        N  0.08186173  0.95682183  0.68293619    -0.28400
C757        C  0.07545632  0.94501927  0.68325280    -0.04500
C758        C  0.06929035  0.94315236  0.67105285     0.07700
C759        C  0.07241462  0.95431549  0.66361259     0.01500
H760        H  0.07496884  0.93851543  0.69185815     0.09200
H761        H  0.06928707  0.95649886  0.65351891     0.08200
N762        N  0.09948680  0.97945728  0.71256141    -0.35600
N763        N  0.10335365  0.99177468  0.70974529    -0.27800
C764        C  0.10637248  0.99809430  0.72117542    -0.03000
C765        C  0.10451106  0.98930854  0.73166238     0.05600
C766        C  0.10021679  0.97756300  0.72585068     0.03700
H767        H  0.10967972  0.00834790  0.72179530     0.08800
H768        H  0.09731986  0.96848993  0.73093938     0.07600
N769        N  0.00504424  0.85430670  0.63854629    -0.26800
N770        N  0.99766090  0.86319556  0.63220528    -0.34600
C771        C  0.00283212  0.87541075  0.63403327     0.01600
C772        C  0.01395175  0.87420593  0.64203683     0.07600
C773        C  0.01506510  0.86069587  0.64477790    -0.05500
H774        H  0.99863212  0.88451620  0.63002711     0.08300
H775        H  0.02264998  0.85586447  0.65072488     0.09500
Cu776      Cu  0.98040279  0.85852237  0.62204762     0.44200
Cu777      Cu  0.00085906  0.83398638  0.63791884     0.42000
Cu778      Cu  0.96743628  0.82538925  0.62509682     0.43900
N779        N  0.96245871  0.85266011  0.61387552    -0.34100
N780        N  0.95718803  0.84067709  0.61542141    -0.28400
C781        C  0.94563138  0.84014650  0.60857819    -0.04500
C782        C  0.94373748  0.85234904  0.60231710     0.07700
C783        C  0.95458512  0.85999842  0.60593378     0.01500
H784        H  0.93950608  0.83133036  0.60759777     0.09200
H785        H  0.95677200  0.87009504  0.60278845     0.08200
N786        N  0.98161712  0.81157441  0.63143481    -0.35600
N787        N  0.99382059  0.81462094  0.63536393    -0.27800
C788        C  0.00073442  0.80325720  0.63726176    -0.03000
C789        C  0.99245305  0.79258230  0.63460620     0.05600
C790        C  0.98041403  0.79820144  0.63097887     0.03700
H791        H  0.01104198  0.80281066  0.64032576     0.08800
H792        H  0.97157738  0.79297803  0.62773934     0.07600
N793        N  0.90195068  0.99028913  0.38413283    -0.26800
N794        N  0.90921317  0.99661206  0.39310536    -0.34600
C795        C  0.90770299  0.99056436  0.40499677     0.01600
C796        C  0.89897651  0.97999695  0.40342917     0.07600
C797        C  0.89548479  0.98014799  0.39009787    -0.05500
H798        H  0.91241067  0.99378936  0.41413651     0.08300
H799        H  0.88883816  0.97332084  0.38507130     0.09500
Cu800      Cu  0.92012496  0.01367314  0.38881004     0.44200
Cu801      Cu  0.90152997  0.99566863  0.36416562     0.42000
Cu802      Cu  0.91667505  0.02758244  0.35556512     0.43900
N803        N  0.92809682  0.03186921  0.38294707    -0.34100
N804        N  0.92637210  0.03729278  0.37103977    -0.28400
C805        C  0.93211958  0.04944424  0.37086276    -0.04500
C806        C  0.93778948  0.05166343  0.38323223     0.07700
C807        C  0.93510702  0.04031881  0.39059097     0.01500
H808        H  0.93227702  0.05606820  0.36233636     0.09200
H809        H  0.93782695  0.03844181  0.40086068     0.08200
N810        N  0.90833589  0.01462145  0.34175800    -0.35600
N811        N  0.90318825  0.00286432  0.34484160    -0.27800
C812        C  0.89963055  0.99655659  0.33355828    -0.03000
C813        C  0.90258388  0.00479840  0.32289636     0.05600
C814        C  0.90804319  0.01616342  0.32844171     0.03700
H815        H  0.89533601  0.98666661  0.33317038     0.08800
H816        H  0.91191933  0.02474694  0.32316458     0.07600
N817        N  0.04289961  0.15374950  0.44698609    -0.26800
N818        N  0.03711040  0.14196128  0.44795355    -0.34600
C819        C  0.04501990  0.13362488  0.45481016     0.01600
C820        C  0.05642131  0.14047033  0.45828600     0.07600
C821        C  0.05479745  0.15320607  0.45314674    -0.05500
H822        H  0.04263895  0.12332867  0.45702348     0.08300
H823        H  0.06157328  0.16153050  0.45411797     0.09500
Cu824      Cu  0.01900679  0.13760100  0.43944708     0.44200
Cu825      Cu  0.03335615  0.16993317  0.43822957     0.42000
Cu826      Cu  0.00040773  0.16322136  0.42296003     0.43900
N827        N  0.00256055  0.13383940  0.42783999    -0.34100
N828        N  0.99579628  0.14300843  0.42121762    -0.28400
C829        C  0.98613316  0.13690275  0.41413097    -0.04500
C830        C  0.98689581  0.12329315  0.41662102     0.07700
C831        C  0.99742516  0.12177568  0.42532062     0.01500
H832        H  0.97901178  0.14198009  0.40782588     0.09200
H833        H  0.00124795  0.11255047  0.42942559     0.08200
N834        N  0.00778005  0.18214267  0.42751815    -0.35600
N835        N  0.01979646  0.18449146  0.43239758    -0.27800
C836        C  0.02128857  0.19771434  0.43413374    -0.03000
C837        C  0.00963002  0.20398669  0.43035571     0.05600
C838        C  0.00127042  0.19383939  0.42624868     0.03700
H839        H  0.03007754  0.20236239  0.43826011     0.08800
H840        H  0.99120101  0.19487067  0.42259070     0.07600
N841        N  0.14489108  0.10609717  0.52237705    -0.26800
N842        N  0.13549244  0.09954652  0.52887617    -0.34600
C843        C  0.12372868  0.10178881  0.52294210     0.01600
C844        C  0.12576476  0.11025044  0.51226902     0.07600
C845        C  0.13929183  0.11285179  0.51218655    -0.05500
H846        H  0.11436145  0.09759181  0.52620243     0.08300
H847        H  0.14469943  0.11892250  0.50509605     0.09500
Cu848      Cu  0.13887109  0.08798156  0.54565213     0.44200
Cu849      Cu  0.16488038  0.10475601  0.52751781     0.42000
Cu850      Cu  0.17191443  0.08786257  0.55926834     0.43900
N851        N  0.14391257  0.07797734  0.56300156    -0.34100
N852        N  0.15589568  0.07835948  0.56840943    -0.28400
C853        C  0.15574035  0.07127089  0.57984098    -0.04500
C854        C  0.14306814  0.06611314  0.58157538     0.07700
C855        C  0.13586859  0.07052869  0.57070431     0.01500
H856        H  0.16425033  0.06982710  0.58628222     0.09200
H857        H  0.12547505  0.06865040  0.56864294     0.08200
N858        N  0.18643790  0.09537705  0.54647677    -0.35600
N859        N  0.18389859  0.10101709  0.53480573    -0.27800
C860        C  0.19547752  0.10355271  0.52855916    -0.03000
C861        C  0.20579202  0.09943884  0.53672825     0.05600
C862        C  0.19970758  0.09436187  0.54801096     0.03700
H863        H  0.19629876  0.10797306  0.51874723     0.08800
H864        H  0.20455297  0.08982447  0.55651461     0.07600
N865        N  0.64711499  0.39557458  0.53002973    -0.26800
N866        N  0.63727423  0.40116631  0.52328707    -0.34600
C867        C  0.62564393  0.39768713  0.52894307     0.01600
C868        C  0.62827970  0.38945204  0.53970513     0.07600
C869        C  0.64200066  0.38833247  0.54012409    -0.05500
H870        H  0.61596392  0.40069121  0.52530154     0.08300
H871        H  0.64784091  0.38254405  0.54710661     0.09500
Cu872      Cu  0.64007943  0.41264294  0.50623109     0.44200
Cu873      Cu  0.66697706  0.39757785  0.52468086     0.42000
Cu874      Cu  0.67352065  0.41441375  0.49297686     0.43900
N875        N  0.64501680  0.42305077  0.48897719    -0.34100
N876        N  0.65716780  0.42360474  0.48395016    -0.28400
C877        C  0.65688702  0.43100449  0.47270273    -0.04500
C878        C  0.64395637  0.43533096  0.47060521     0.07700
C879        C  0.63672348  0.43009139  0.48112868     0.01500
H880        H  0.66547129  0.43315904  0.46656752     0.09200
H881        H  0.62618038  0.43123648  0.48294288     0.08200
N882        N  0.68818193  0.40552857  0.50479368    -0.35600
N883        N  0.68583339  0.39995278  0.51653200    -0.27800
C884        C  0.69747707  0.39634415  0.52210449    -0.03000
C885        C  0.70762670  0.39962555  0.51340725     0.05600
C886        C  0.70138714  0.40538340  0.50251468     0.03700
H887        H  0.69848484  0.39184237  0.53186376     0.08800
H888        H  0.70613290  0.40974175  0.49386511     0.07600
N889        N  0.57433673  0.54197667  0.37267225    -0.26800
N890        N  0.57546267  0.53675161  0.38470904    -0.34600
C891        C  0.56897204  0.54448339  0.39350618     0.01600
C892        C  0.56357920  0.55516657  0.38667957     0.07600
C893        C  0.56716968  0.55330210  0.37347803    -0.05500
H894        H  0.56844255  0.54259251  0.40411558     0.08300
H895        H  0.56473008  0.55964521  0.36509000     0.09500
Cu896      Cu  0.58651129  0.51983594  0.38850172     0.44200
Cu897      Cu  0.58280035  0.53307126  0.35603778     0.42000
Cu898      Cu  0.60658814  0.50563068  0.36181899     0.43900
N899        N  0.59978363  0.50437244  0.39120155    -0.34100
N900        N  0.60770331  0.49944877  0.38188155    -0.28400
C901        C  0.61554346  0.49003930  0.38754440    -0.04500
C902        C  0.61217910  0.48899961  0.40095184     0.07700
C903        C  0.60215365  0.49818325  0.40283186     0.01500
H904        H  0.62291733  0.48421542  0.38226624     0.09200
H905        H  0.59705730  0.50038730  0.41207483     0.08200
N906        N  0.60129334  0.51300999  0.34285367    -0.35600
N907        N  0.59230605  0.52251218  0.34098715    -0.27800
C908        C  0.59028186  0.52419003  0.32783817    -0.03000
C909        C  0.59848733  0.51553647  0.32098813     0.05600
C910        C  0.60538557  0.50860585  0.33079989     0.03700
H911        H  0.58327802  0.53120000  0.32357040     0.08800
H912        H  0.61246243  0.50060827  0.32929449     0.07600
N913        N  0.50233601  0.64279741  0.42608500    -0.26800
N914        N  0.49725068  0.63453097  0.43500199    -0.34600
C915        C  0.50346682  0.62267256  0.43405993     0.01600
C916        C  0.51281465  0.62355256  0.42397530     0.07600
C917        C  0.51181369  0.63641662  0.41911575    -0.05500
H918        H  0.50103291  0.61396028  0.43995610     0.08300
H919        H  0.51749479  0.64080398  0.41106814     0.09500
Cu920      Cu  0.48135839  0.63958090  0.44715862     0.44200
Cu921      Cu  0.49627227  0.66238186  0.42407131     0.42000
Cu922      Cu  0.46622659  0.67202687  0.44199224     0.43900
N923        N  0.46419204  0.64592854  0.45669828    -0.34100
N924        N  0.45822335  0.65747683  0.45440341    -0.28400
C925        C  0.44703232  0.65811061  0.46178315    -0.04500
C926        C  0.44606211  0.64644362  0.46913700     0.07700
C927        C  0.45709070  0.63899488  0.46568286     0.01500
H928        H  0.44023545  0.66648793  0.46190404     0.09200
H929        H  0.45963843  0.62911614  0.46923441     0.08200
N930        N  0.47856691  0.68532027  0.43199475    -0.35600
N931        N  0.48969802  0.68181899  0.42589078    -0.27800
C932        C  0.49638888  0.69286796  0.42230499    -0.03000
C933        C  0.48905196  0.70382876  0.42624283     0.05600
C934        C  0.47778396  0.69871793  0.43224895     0.03700
H935        H  0.50608757  0.69288594  0.41763096     0.08800
H936        H  0.47003812  0.70430991  0.43723501     0.07600
N937        N  0.34671774  0.57029342  0.57002220    -0.26800
N938        N  0.35866801  0.57032199  0.56454277    -0.34600
C939        C  0.36696761  0.56290719  0.57196659     0.01600
C940        C  0.35993847  0.55789595  0.58265762     0.07600
C941        C  0.34710441  0.56277027  0.58117145    -0.05500
H942        H  0.37737331  0.56130253  0.56972865     0.08300
H943        H  0.33867336  0.56090686  0.58760703     0.09500
Cu944      Cu  0.36339513  0.58060635  0.54743522     0.44200
Cu945      Cu  0.33061893  0.58013337  0.56134027     0.42000
Cu946      Cu  0.33799847  0.59880598  0.53031921     0.43900
N947        N  0.36737339  0.59366307  0.53212179    -0.34100
N948        N  0.35825091  0.60084938  0.52591272    -0.28400
C949        C  0.36444235  0.60930515  0.51744675    -0.04500
C950        C  0.37806130  0.60722763  0.51847083     0.07700
C951        C  0.37949479  0.59720511  0.52782021     0.01500
H952        H  0.35944651  0.61658186  0.51123629     0.09200
H953        H  0.38868894  0.59309734  0.53164014     0.08200
N954        N  0.31885369  0.59466266  0.53746440    -0.35600
N955        N  0.31624894  0.58848614  0.54886085    -0.27800
C956        C  0.30296744  0.58735632  0.55027096    -0.03000
C957        C  0.29691226  0.59289608  0.53917621     0.05600
C958        C  0.30727130  0.59740446  0.53127583     0.03700
H959        H  0.29811538  0.58230815  0.55847837     0.08800
H960        H  0.30645649  0.60215588  0.52161822     0.07600
N961        N  0.50659950  0.35085855  0.63719973    -0.26800
N962        N  0.51283255  0.35995645  0.62999759    -0.34600
C963        C  0.50784870  0.37207127  0.63282826     0.01600
C964        C  0.49803644  0.37058576  0.64235176     0.07600
C965        C  0.49746379  0.35698501  0.64491424    -0.05500
H966        H  0.51126918  0.38131144  0.62841467     0.08300
H967        H  0.49092597  0.35192523  0.65183341     0.09500
Cu968      Cu  0.52840329  0.35551734  0.61730158     0.44200
Cu969      Cu  0.51132343  0.33067666  0.63573909     0.42000
Cu970      Cu  0.54248926  0.32236578  0.61778731     0.43900
N971        N  0.54533709  0.35018601  0.60690819    -0.34100
N972        N  0.55114233  0.33835422  0.60759703    -0.28400
C973        C  0.56229661  0.33861593  0.60009391    -0.04500
C974        C  0.56331464  0.35114785  0.59429683     0.07700
C975        C  0.55240270  0.35816537  0.59882706     0.01500
H976        H  0.56890031  0.33021347  0.59862202     0.09200
H977        H  0.54984740  0.36841171  0.59654925     0.08200
N978        N  0.52936937  0.30834268  0.62586784    -0.35600
N979        N  0.51795217  0.31138499  0.63173353    -0.27800
C980        C  0.51119615  0.30005877  0.63421906    -0.03000
C981        C  0.51874918  0.28937836  0.62992527     0.05600
C982        C  0.53023296  0.29496265  0.62473545     0.03700
H983        H  0.50140305  0.29965051  0.63867196     0.08800
H984        H  0.53830837  0.28973829  0.61987387     0.07600
N985        N  0.40212749  0.49745028  0.66992882    -0.26800
N986        N  0.41053090  0.49202405  0.66136321    -0.34600
C987        C  0.40851048  0.49737575  0.64923193     0.01600
C988        C  0.39818269  0.50643560  0.65016994     0.07600
C989        C  0.39432469  0.50621977  0.66340235    -0.05500
H990        H  0.41377458  0.49444851  0.64029245     0.08300
H991        H  0.38644618  0.51199799  0.66794903     0.09500
Cu992      Cu  0.42302665  0.47628458  0.66613765     0.44200
Cu993      Cu  0.40191664  0.49256182  0.69006600     0.42000
Cu994      Cu  0.41824540  0.46124149  0.69856602     0.43900
N995        N  0.43186312  0.45852691  0.67199599    -0.34100
N996        N  0.42952914  0.45253282  0.68351446    -0.28400
C997        C  0.43660294  0.44110564  0.68402042    -0.04500
C998        C  0.44385255  0.44001274  0.67234132     0.07700
C999        C  0.44057249  0.45120283  0.66495025     0.01500
H1000       H  0.43684332  0.43437605  0.69245957     0.09200
H1001       H  0.44424095  0.45386132  0.65516196     0.08200
N1002       N  0.41047935  0.47442133  0.71258230    -0.35600
N1003       N  0.40494604  0.48601201  0.70950593    -0.27800
C1004       C  0.40253466  0.49283842  0.72080612    -0.03000
C1005       C  0.40669433  0.48515155  0.73150265     0.05600
C1006       C  0.41160819  0.47352885  0.72592640     0.03700
H1007       H  0.39837220  0.50279219  0.72116076     0.08800
H1008       H  0.41623981  0.46528933  0.73114597     0.07600
N1009       N  0.58922869  0.04221520  0.68138205    -0.26800
N1010       N  0.58703510  0.03625799  0.66982368    -0.34600
C1011       C  0.57861941  0.04375868  0.66256756     0.01600
C1012       C  0.57542263  0.05504845  0.66979206     0.07600
C1013       C  0.58235187  0.05378865  0.68167994    -0.05500
H1014       H  0.57502838  0.04113733  0.65274739     0.08300
H1015       H  0.58204001  0.06052054  0.69009935     0.09500
Cu1016     Cu  0.59551465  0.01818951  0.66415783     0.44200
Cu1017     Cu  0.60038436  0.03343274  0.69661772     0.42000
Cu1018     Cu  0.61490470  0.00085016  0.68846998     0.43900
N1019       N  0.60644062  0.00110387  0.65982862    -0.34100
N1020       N  0.61400844  0.99497767  0.66870542    -0.28400
C1021       C  0.62070398  0.98502916  0.66267408    -0.04500
C1022       C  0.61706776  0.98484018  0.64937034     0.07700
C1023       C  0.60796558  0.99510417  0.64793431     0.01500
H1024       H  0.62776620  0.97852166  0.66758870     0.09200
H1025       H  0.60318712  0.99830148  0.63880721     0.08200
N1026       N  0.61384690  0.00863603  0.70756214    -0.35600
N1027       N  0.60910404  0.02059974  0.71053505    -0.27800
C1028       C  0.60961381  0.02223006  0.72385525    -0.03000
C1029       C  0.61475949  0.01068802  0.72947557     0.05600
C1030       C  0.61729429  0.00230098  0.71887297     0.03700
H1031       H  0.60588892  0.03089646  0.72908975     0.08800
H1032       H  0.62110720  0.99220795  0.71934722     0.07600
N1033       N  0.50434721  0.13863994  0.63624691    -0.26800
N1034       N  0.49696030  0.12899692  0.63119598    -0.34600
C1035       C  0.50261848  0.11715492  0.63396850     0.01600
C1036       C  0.51411450  0.11942193  0.64120253     0.07600
C1037       C  0.51488335  0.13316590  0.64253857    -0.05500
H1038       H  0.49869839  0.10761297  0.63082693     0.08300
H1039       H  0.52272236  0.13877587  0.64733271     0.09500
Cu1040     Cu  0.47975912  0.13250293  0.62038393     0.44200
Cu1041     Cu  0.49976108  0.15866237  0.63323619     0.42000
Cu1042     Cu  0.46884873  0.16659053  0.61478953     0.43900
N1043       N  0.46284140  0.13748347  0.60970051    -0.34100
N1044       N  0.45845832  0.14981391  0.60789700    -0.28400
C1045       C  0.44708173  0.14930391  0.60075692    -0.04500
C1046       C  0.44437620  0.13603804  0.59784341     0.07700
C1047       C  0.45459321  0.12888121  0.60361097     0.01500
H1048       H  0.44142017  0.15793883  0.59760740     0.09200
H1049       H  0.45591519  0.11816283  0.60346370     0.08200
N1050       N  0.48208370  0.18086496  0.62238894    -0.35600
N1051       N  0.49329931  0.17785655  0.62864953    -0.27800
C1052       C  0.49980431  0.18919170  0.63163106    -0.03000
C1053       C  0.49232038  0.19988333  0.62724563     0.05600
C1054       C  0.48112413  0.19427574  0.62144552     0.03700
H1055       H  0.50930590  0.18960708  0.63667176     0.08800
H1056       H  0.47305545  0.19952789  0.61659752     0.07600
N1057       N  0.64868595  0.89320008  0.51969844    -0.26800
N1058       N  0.63982136  0.90061398  0.52599976    -0.34600
C1059       C  0.62783570  0.89887476  0.52036321     0.01600
C1060       C  0.62916850  0.88979575  0.51009511     0.07600
C1061       C  0.64250356  0.88634213  0.50995550    -0.05500
H1062       H  0.61875933  0.90355777  0.52378484     0.08300
H1063       H  0.64734471  0.87939166  0.50328333     0.09500
Cu1064     Cu  0.64414223  0.91188681  0.54266094     0.44200
Cu1065     Cu  0.66868842  0.89319465  0.52492598     0.42000
Cu1066     Cu  0.67681595  0.90943613  0.55694706     0.43900
N1067       N  0.64950581  0.92112664  0.56024696    -0.34100
N1068       N  0.66133818  0.92001857  0.56587686    -0.28400
C1069       C  0.66132266  0.92701053  0.57736752    -0.04500
C1070       C  0.64888563  0.93279602  0.57891459     0.07700
C1071       C  0.64168631  0.92883899  0.56787555     0.01500
H1072       H  0.66974570  0.92791692  0.58400963     0.09200
H1073       H  0.63145036  0.93123884  0.56558630     0.08200
N1074       N  0.69072238  0.90092240  0.54408124    -0.35600
N1075       N  0.68786162  0.89580621  0.53225389    -0.27800
C1076       C  0.69927884  0.89305250  0.52579418    -0.03000
C1077       C  0.70977762  0.89633181  0.53403463     0.05600
C1078       C  0.70402432  0.90121151  0.54555812     0.03700
H1079       H  0.69987867  0.88910121  0.51578032     0.08800
H1080       H  0.70913489  0.90538946  0.55407492     0.07600
N1081       N  0.35827046  0.09787967  0.53317333    -0.26800
N1082       N  0.36761966  0.09247672  0.52565700    -0.34600
C1083       C  0.37948904  0.09404210  0.53164971     0.01600
C1084       C  0.37753088  0.10092621  0.54344405     0.07600
C1085       C  0.36396930  0.10325730  0.54406886    -0.05500
H1086       H  0.38888431  0.09080518  0.52750041     0.08300
H1087       H  0.35864455  0.10848225  0.55184929     0.09500
Cu1088     Cu  0.36369846  0.08415416  0.50715347     0.44200
Cu1089     Cu  0.33827447  0.09737385  0.52792476     0.42000
Cu1090     Cu  0.32998334  0.08513960  0.49421141     0.43900
N1091       N  0.35831504  0.07696581  0.48854141    -0.34100
N1092       N  0.34618712  0.07752935  0.48344735    -0.28400
C1093       C  0.34631419  0.07152413  0.47138101    -0.04500
C1094       C  0.35910759  0.06687533  0.46894902     0.07700
C1095       C  0.36637524  0.07052743  0.48002620     0.01500
H1096       H  0.33763497  0.07004698  0.46518522     0.09200
H1097       H  0.37674355  0.06834857  0.48193529     0.08200
N1098       N  0.31597446  0.09146310  0.50836961    -0.35600
N1099       N  0.31902634  0.09535749  0.52060918    -0.27800
C1100       C  0.30774354  0.09789169  0.52737931    -0.03000
C1101       C  0.29706472  0.09568204  0.51899520     0.05600
C1102       C  0.30262890  0.09166858  0.50701935     0.03700
H1103       H  0.30736995  0.10122511  0.53762728     0.08800
H1104       H  0.29734851  0.08880793  0.49807589     0.07600
N1105       N  0.40104731  0.00496157  0.38177916    -0.26800
N1106       N  0.40757811  0.99817748  0.39102508    -0.34600
C1107       C  0.40451001  0.00312842  0.40309935     0.01600
C1108       C  0.39549857  0.01345757  0.40146848     0.07600
C1109       C  0.39348956  0.01432659  0.38781503    -0.05500
H1110       H  0.40836051  0.99927738  0.41241253     0.08300
H1111       H  0.38709325  0.02131262  0.38264978     0.09500
Cu1112     Cu  0.41954766  0.98169433  0.38711508     0.44200
Cu1113     Cu  0.40300704  0.00096209  0.36137280     0.42000
Cu1114     Cu  0.41784451  0.96847509  0.35394191     0.43900
N1115       N  0.42829729  0.96372527  0.38156024    -0.34100
N1116       N  0.42703157  0.95846480  0.36954809    -0.28400
C1117       C  0.43333110  0.94659039  0.36925855    -0.04500
C1118       C  0.43892117  0.94436691  0.38167065     0.07700
C1119       C  0.43557741  0.95543521  0.38918882     0.01500
H1120       H  0.43412309  0.94027219  0.36055531     0.09200
H1121       H  0.43819011  0.95729820  0.39948305     0.08200
N1122       N  0.41165828  0.98197384  0.33950020    -0.35600
N1123       N  0.40692333  0.99403822  0.34205454    -0.27800
C1124       C  0.40546916  0.00066058  0.33041970    -0.03000
C1125       C  0.40931915  0.99227873  0.32011510     0.05600
C1126       C  0.41310405  0.98052987  0.32624923     0.03700
H1127       H  0.40197424  0.01084021  0.32953980     0.08800
H1128       H  0.41718790  0.97175981  0.32147404     0.07600
N1129       N  0.50098672  0.85541585  0.41894790    -0.26800
N1130       N  0.50870453  0.86466091  0.42423674    -0.34600
C1131       C  0.50400016  0.87676547  0.42096397     0.01600
C1132       C  0.49280403  0.87510276  0.41314504     0.07600
C1133       C  0.49118011  0.86142468  0.41198592    -0.05500
H1134       H  0.50841268  0.88609127  0.42409510     0.08300
H1135       H  0.48329147  0.85624445  0.40680783     0.09500
Cu1136     Cu  0.52530338  0.86048616  0.43567062     0.44200
Cu1137     Cu  0.50441126  0.83524713  0.42218907     0.42000
Cu1138     Cu  0.53650432  0.82649593  0.43804664     0.43900
N1139       N  0.54210019  0.85474977  0.44609515    -0.34100
N1140       N  0.54662359  0.84236714  0.44660395    -0.28400
C1141       C  0.55783676  0.84213109  0.45395892    -0.04500
C1142       C  0.56033352  0.85499203  0.45833731     0.07700
C1143       C  0.55016421  0.86269347  0.45320492     0.01500
H1144       H  0.56354122  0.83324111  0.45618574     0.09200
H1145       H  0.54876349  0.87332663  0.45446336     0.08200
N1146       N  0.52260879  0.81277858  0.43126226    -0.35600
N1147       N  0.51083764  0.81597748  0.42626278    -0.27800
C1148       C  0.50389360  0.80474519  0.42404640    -0.03000
C1149       C  0.51171791  0.79399246  0.42764264     0.05600
C1150       C  0.52352621  0.79940050  0.43211085     0.03700
H1151       H  0.49391743  0.80445177  0.42002011     0.08800
H1152       H  0.53199459  0.79404618  0.43608729     0.07600
C1153       C  0.46079014  0.92217925  0.39740348     0.30300
C1154       C  0.47020687  0.91828559  0.40691319    -0.36000
C1155       C  0.47482797  0.90515245  0.40594227     0.16300
C1156       C  0.47039005  0.89628890  0.39641554     0.22100
C1157       C  0.46103160  0.90024784  0.38673975    -0.34200
C1158       C  0.45652261  0.91353191  0.38759369     0.16200
O1159       O  0.45513760  0.93400926  0.39661018    -0.26200
C1160       C  0.44722621  0.93307801  0.38604975     0.06000
C1161       C  0.44769846  0.92057903  0.37996841    -0.31100
O1162       O  0.47597767  0.88438237  0.39763960    -0.22900
C1163       C  0.48418801  0.88581082  0.40797726    -0.02900
C1164       C  0.48388464  0.89852331  0.41346630    -0.17300
H1165       H  0.47370343  0.92504487  0.41454536     0.20700
H1166       H  0.45753671  0.89348665  0.37910850     0.19100
H1167       H  0.44221590  0.91715790  0.37134507     0.19000
H1168       H  0.48942879  0.90229503  0.42190136     0.14900
C1169       C  0.37673228  0.03489352  0.42209690     0.30300
C1170       C  0.36647316  0.04384700  0.42555436    -0.36000
C1171       C  0.36665193  0.04869374  0.43873121     0.16300
C1172       C  0.37636923  0.04508106  0.44775856     0.22100
C1173       C  0.38645790  0.03602542  0.44437892    -0.34200
C1174       C  0.38618322  0.03108872  0.43132039     0.16200
O1175       O  0.37869276  0.02928378  0.41031239    -0.26200
C1176       C  0.38946005  0.02169593  0.41210701     0.06000
C1177       C  0.39447021  0.02240725  0.42501275    -0.31100
O1178       O  0.37495730  0.05102895  0.45937408    -0.22900
C1179       C  0.36408427  0.05846716  0.45794221    -0.02900
C1180       C  0.35841981  0.05738561  0.44530115    -0.17300
H1181       H  0.35893718  0.04686912  0.41846380     0.20700
H1182       H  0.39405568  0.03308582  0.45144067     0.19100
H1183       H  0.40311571  0.01742744  0.42909970     0.19000
H1184       H  0.34969008  0.06242180  0.44147274     0.14900
C1185       C  0.58224587  0.87258629  0.47888751     0.30300
C1186       C  0.58647184  0.88333882  0.48672978    -0.36000
C1187       C  0.59936973  0.88237272  0.49190555     0.16300
C1188       C  0.60763818  0.87165483  0.48942087     0.22100
C1189       C  0.60334158  0.86080152  0.48168208    -0.34200
C1190       C  0.59034468  0.86168665  0.47663026     0.16200
O1191       O  0.57066513  0.87158047  0.47285857    -0.26200
C1192       C  0.57125267  0.85981823  0.46676736     0.06000
C1193       C  0.58322723  0.85314663  0.46881712    -0.31100
O1194       O  0.61934911  0.87291876  0.49523466    -0.22900
C1195       C  0.61846450  0.88452158  0.50162946    -0.02900
C1196       C  0.60625926  0.89082502  0.49992059    -0.17300
H1197       H  0.58014662  0.89186616  0.48864953     0.20700
H1198       H  0.60966873  0.85228101  0.47975149     0.19100
H1199       H  0.58634518  0.84360817  0.46484069     0.19000
H1200       H  0.60294182  0.90024474  0.50402022     0.14900
C1201       C  0.39748747  0.11733254  0.56702389     0.30300
C1202       C  0.40093163  0.12750219  0.57602388    -0.36000
C1203       C  0.41408515  0.12732213  0.58074353     0.16300
C1204       C  0.42310741  0.11758280  0.57714510     0.22100
C1205       C  0.41968955  0.10745604  0.56810485    -0.34200
C1206       C  0.40664713  0.10783807  0.56313363     0.16200
O1207       O  0.38593596  0.11595623  0.56091439    -0.26200
C1208       C  0.38778272  0.10555968  0.55286666     0.06000
C1209       C  0.40048685  0.10011317  0.55382387    -0.31100
O1210       O  0.43484562  0.11930696  0.58275560    -0.22900
C1211       C  0.43342319  0.13043801  0.58985335    -0.02900
C1212       C  0.42072463  0.13589981  0.58895234    -0.17300
H1213       H  0.39394004  0.13518989  0.57889908     0.20700
H1214       H  0.42678750  0.09997486  0.56495357     0.19100
H1215       H  0.40462609  0.09180685  0.54831815     0.19000
H1216       H  0.41693686  0.14480243  0.59373186     0.14900
C1217       C  0.53930135  0.10018208  0.65626580     0.30300
C1218       C  0.54976507  0.09726397  0.66512983    -0.36000
C1219       C  0.55515710  0.08432379  0.66428581     0.16300
C1220       C  0.55068441  0.07501485  0.65520700     0.22100
C1221       C  0.54017234  0.07787936  0.64646965    -0.34200
C1222       C  0.53467463  0.09070129  0.64745112     0.16200
O1223       O  0.53278668  0.11161745  0.65525888    -0.26200
C1224       C  0.52377933  0.10932072  0.64578799     0.06000
C1225       C  0.52448901  0.09646365  0.64062259    -0.31100
O1226       O  0.55724497  0.06363952  0.65592431    -0.22900
C1227       C  0.56596990  0.06555858  0.66570336    -0.02900
C1228       C  0.56510928  0.07824362  0.67132916    -0.17300
H1229       H  0.55341468  0.10454050  0.67219262     0.20700
H1230       H  0.53651056  0.07059840  0.63941589     0.19100
H1231       H  0.51847918  0.09205498  0.63284198     0.19000
H1232       H  0.57103490  0.08240148  0.67930928     0.14900
C1233       C  0.62383092  0.96692453  0.62015741     0.30300
C1234       C  0.62158075  0.96250725  0.60710356    -0.36000
C1235       C  0.63139292  0.95420011  0.60166778     0.16300
C1236       C  0.64273584  0.95054730  0.60850958     0.22100
C1237       C  0.64494800  0.95489880  0.62164289    -0.34200
C1238       C  0.63503214  0.96311337  0.62715570     0.16200
O1239       O  0.61603438  0.97493627  0.62705089    -0.26200
C1240       C  0.62221508  0.97618342  0.63869997     0.06000
C1241       C  0.63406198  0.96899536  0.63937614    -0.31100
O1242       O  0.65057098  0.94268464  0.60141297    -0.22900
C1243       C  0.64406940  0.94123420  0.58993496    -0.02900
C1244       C  0.63209375  0.94818725  0.58956170    -0.17300
H1245       H  0.61278410  0.96534877  0.60156763     0.20700
H1246       H  0.65374381  0.95205692  0.62717753     0.19100
H1247       H  0.64107568  0.96846084  0.64754181     0.19000
H1248       H  0.62490400  0.94870484  0.58155151     0.14900
C1249       C  0.50796736  0.23110061  0.62971434     0.30300
C1250       C  0.51878689  0.23992850  0.63048696    -0.36000
C1251       C  0.51566514  0.25358137  0.63016430     0.16300
C1252       C  0.50276044  0.25823506  0.62945671     0.22100
C1253       C  0.49194277  0.24940231  0.62855681    -0.34200
C1254       C  0.49508781  0.23573953  0.62858260     0.16200
O1255       O  0.50864479  0.21795112  0.62958043    -0.26200
C1256       C  0.49606153  0.21408578  0.62813097     0.06000
C1257       C  0.48717765  0.22472898  0.62742671    -0.31100
O1258       O  0.50212465  0.27139600  0.62944682    -0.22900
C1259       C  0.51479581  0.27522167  0.62993893    -0.02900
C1260       C  0.52366863  0.26456662  0.63033283    -0.17300
H1261       H  0.52894021  0.23639420  0.63112187     0.20700
H1262       H  0.48180390  0.25293884  0.62773269     0.19100
H1263       H  0.47648195  0.22438896  0.62626593     0.19000
H1264       H  0.53441861  0.26488982  0.63079083     0.14900
C1265       C  0.48223529  0.40052418  0.65106839     0.30300
C1266       C  0.47885647  0.41402365  0.64960375    -0.36000
C1267       C  0.46891803  0.41879626  0.65814896     0.16300
C1268       C  0.46286831  0.41093799  0.66769184     0.22100
C1269       C  0.46633778  0.39741866  0.66923481    -0.34200
C1270       C  0.47613118  0.39255764  0.66048793     0.16200
O1271       O  0.49077025  0.39388547  0.64363509    -0.26200
C1272       C  0.49011155  0.38145187  0.64825539     0.06000
C1273       C  0.48117326  0.38001294  0.65877071    -0.31100
O1274       O  0.45342759  0.41739021  0.67421506    -0.22900
C1275       C  0.45337223  0.42946819  0.66864000    -0.02900
C1276       C  0.46282868  0.43090295  0.65862803    -0.17300
H1277       H  0.48336831  0.42026221  0.64204460     0.20700
H1278       H  0.46146678  0.39105191  0.67645295     0.19100
H1279       H  0.47863017  0.37103214  0.66420202     0.19000
H1280       H  0.46475859  0.43953187  0.65242369     0.14900
C1281       C  0.37909955  0.53794729  0.60396257     0.30300
C1282       C  0.39069260  0.53157805  0.60845188    -0.36000
C1283       C  0.38966757  0.52486771  0.62067390     0.16300
C1284       C  0.37807360  0.52454210  0.62804229     0.22100
C1285       C  0.36641053  0.53073925  0.62343771    -0.34200
C1286       C  0.36741635  0.53740810  0.61117015     0.16200
O1287       O  0.37794813  0.54512041  0.59301384    -0.26200
C1288       C  0.36535537  0.54920848  0.59316061     0.06000
C1289       C  0.35828695  0.54466925  0.60419210    -0.31100
O1290       O  0.37951909  0.51811722  0.63944000    -0.22900
C1291       C  0.39215050  0.51414400  0.63926334    -0.02900
C1292       C  0.39892956  0.51799345  0.62780870    -0.17300
H1293       H  0.39990621  0.53197230  0.60288748     0.20700
H1294       H  0.35725912  0.53054267  0.62911100     0.19100
H1295       H  0.34802790  0.54662961  0.60680324     0.19000
H1296       H  0.40923953  0.51621053  0.62525959     0.14900
C1297       C  0.49141522  0.73862471  0.42636056     0.30300
C1298       C  0.48665524  0.75174414  0.42705068    -0.36000
C1299       C  0.49633089  0.76177822  0.42686792     0.16300
C1300       C  0.50979521  0.75911785  0.42629350     0.22100
C1301       C  0.51456393  0.74597377  0.42542768    -0.34200
C1302       C  0.50485030  0.73592390  0.42537270     0.16200
O1303       O  0.48410945  0.72773055  0.42667712    -0.26200
C1304       C  0.49294462  0.71791721  0.42566494     0.06000
C1305       C  0.50601268  0.72239529  0.42475340    -0.31100
O1306       O  0.51705776  0.77007259  0.42659815    -0.22900
C1307       C  0.50808654  0.77982856  0.42717011    -0.02900
C1308       C  0.49504608  0.77526489  0.42731919    -0.17300
H1309       H  0.47614263  0.75396873  0.42772503     0.20700
H1310       H  0.52508275  0.74374412  0.42486688     0.19100
H1311       H  0.51504016  0.71653363  0.42414784     0.19000
H1312       H  0.48596322  0.78104376  0.42787865     0.14900
C1313       C  0.42556542  0.63051643  0.49237414     0.30300
C1314       C  0.42219028  0.62047097  0.50148137    -0.36000
C1315       C  0.40873110  0.61967891  0.50495796     0.16300
C1316       C  0.39918563  0.62819471  0.49989723     0.22100
C1317       C  0.40263239  0.63849606  0.49100254    -0.34200
C1318       C  0.41614946  0.63928494  0.48748135     0.16200
O1319       O  0.43732560  0.63218380  0.48685740    -0.26200
C1320       C  0.43552830  0.64224734  0.47840014     0.06000
C1321       C  0.42257832  0.64719209  0.47844452    -0.31100
O1322       O  0.38706292  0.62505119  0.50394108    -0.22900
C1323       C  0.38894475  0.61442427  0.51172118    -0.02900
C1324       C  0.40224053  0.61070836  0.51273949    -0.17300
H1325       H  0.42947108  0.61342726  0.50519707     0.20700
H1326       H  0.39524298  0.64511627  0.48677042     0.19100
H1327       H  0.41835351  0.65488632  0.47215252     0.19000
H1328       H  0.40650040  0.60238908  0.51815134     0.14900
C1329       C  0.54466476  0.57713959  0.40612320     0.30300
C1330       C  0.53743817  0.58133576  0.41733477    -0.36000
C1331       C  0.53177176  0.59410683  0.41650470     0.16300
C1332       C  0.53327257  0.60224113  0.40548809     0.22100
C1333       C  0.54042970  0.59801740  0.39426204    -0.34200
C1334       C  0.54593623  0.58518714  0.39501723     0.16200
O1335       O  0.55072258  0.56555684  0.40468771    -0.26200
C1336       C  0.55581689  0.56615861  0.39245587     0.06000
C1337       C  0.55312552  0.57812056  0.38595023    -0.31100
O1338       O  0.52704267  0.61373530  0.40678484    -0.22900
C1339       C  0.52136105  0.61290585  0.41872574    -0.02900
C1340       C  0.52395084  0.60092166  0.42525104    -0.17300
H1341       H  0.53621444  0.57504532  0.42602181     0.20700
H1342       H  0.54150411  0.60423908  0.38550676     0.19100
H1343       H  0.55612706  0.58119732  0.37605435     0.19000
H1344       H  0.52048731  0.59767820  0.43494110     0.14900
C1345       C  0.61856271  0.46943736  0.42926855     0.30300
C1346       C  0.61561590  0.46356261  0.44162544    -0.36000
C1347       C  0.62580471  0.45597752  0.44744869     0.16300
C1348       C  0.63813264  0.45438226  0.44161966     0.22100
C1349       C  0.64105101  0.46019321  0.42916956    -0.34200
C1350       C  0.63076867  0.46765344  0.42323079     0.16200
O1351       O  0.61052222  0.47705838  0.42220356    -0.26200
C1352       C  0.61753867  0.48007629  0.41135957     0.06000
C1353       C  0.63021866  0.47446508  0.41140875    -0.31100
O1354       O  0.64621758  0.44698686  0.44896199    -0.22900
C1355       C  0.63891624  0.44373613  0.45957672    -0.02900
C1356       C  0.62612722  0.44904758  0.45912791    -0.17300
H1357       H  0.60603220  0.46482860  0.44637722     0.20700
H1358       H  0.65064737  0.45896570  0.42443988     0.19100
H1359       H  0.63796912  0.47552449  0.40399612     0.19000
H1360       H  0.61822732  0.44802303  0.46638574     0.14900
C1361       C  0.59996613  0.37784997  0.55652116     0.30300
C1362       C  0.58638011  0.37717670  0.55955542    -0.36000
C1363       C  0.58281075  0.36825940  0.56971015     0.16300
C1364       C  0.59191051  0.36035010  0.57634496     0.22100
C1365       C  0.60556042  0.36108164  0.57334984    -0.34200
C1366       C  0.60916797  0.37016000  0.56327006     0.16200
O1367       O  0.60545418  0.38560548  0.54743627    -0.26200
C1368       C  0.61838091  0.38294880  0.54838596     0.06000
C1369       C  0.62129731  0.37343486  0.55810671    -0.31100
O1370       O  0.58629312  0.35286930  0.58565154    -0.22900
C1371       C  0.57347829  0.35620598  0.58501534    -0.02900
C1372       C  0.57077173  0.36572763  0.57529845    -0.17300
H1373       H  0.57910966  0.38330083  0.55445719     0.20700
H1374       H  0.61285689  0.35512131  0.57859982     0.19100
H1375       H  0.63091268  0.36944913  0.56088418     0.19000
H1376       H  0.56130585  0.37026361  0.57285216     0.14900
C1377       C  0.26230966  0.09935830  0.51953317     0.30300
C1378       C  0.24953950  0.10099617  0.51410209    -0.36000
C1379       C  0.23893142  0.10061386  0.52319047     0.16300
C1380       C  0.24073177  0.09862261  0.53668412     0.22100
C1381       C  0.25352623  0.09724125  0.54215669    -0.34200
C1382       C  0.26415314  0.09776014  0.53307497     0.16200
O1383       O  0.27357956  0.09886303  0.51279473    -0.26200
C1384       C  0.28280248  0.09710722  0.52215125     0.06000
C1385       C  0.27752214  0.09644083  0.53497265    -0.31100
O1386       O  0.22936503  0.09798829  0.54325163    -0.22900
C1387       C  0.22017048  0.09975923  0.53385821    -0.02900
C1388       C  0.22555568  0.10150714  0.52119492    -0.17300
H1389       H  0.24797079  0.10227161  0.50350865     0.20700
H1390       H  0.25507332  0.09567716  0.55271602     0.19100
H1391       H  0.28273907  0.09482052  0.54427090     0.19000
H1392       H  0.22036368  0.10287477  0.51184406     0.14900
C1393       C  0.08629584  0.13385538  0.47513536     0.30300
C1394       C  0.09944227  0.13605922  0.47934613    -0.36000
C1395       C  0.10460331  0.12672129  0.48843953     0.16300
C1396       C  0.09726122  0.11606658  0.49314121     0.22100
C1397       C  0.08423631  0.11374934  0.48877970    -0.34200
C1398       C  0.07914471  0.12298510  0.47962506     0.16200
O1399       O  0.07931130  0.14150151  0.46699944    -0.26200
C1400       C  0.06761478  0.13533180  0.46619963     0.06000
C1401       C  0.06697866  0.12373651  0.47379869    -0.31100
O1402       O  0.10375988  0.10892050  0.50202665    -0.22900
C1403       C  0.11549777  0.11494282  0.50295132    -0.02900
C1404       C  0.11665072  0.12604712  0.49467242    -0.17300
H1405       H  0.10517040  0.14453454  0.47591433     0.20700
H1406       H  0.07841354  0.10542191  0.49241342     0.19100
H1407       H  0.05865774  0.11701018  0.47509583     0.19000
H1408       H  0.12497885  0.13281542  0.49368788     0.14900
C1409       C  0.95745338  0.07498543  0.39999730     0.30300
C1410       C  0.96619952  0.07932171  0.40991427    -0.36000
C1411       C  0.96998461  0.09272665  0.40924646     0.16300
C1412       C  0.96541249  0.10142975  0.39960567     0.22100
C1413       C  0.95663285  0.09705539  0.38958829    -0.34200
C1414       C  0.95295447  0.08350476  0.39014784     0.16200
O1415       O  0.95273568  0.06280574  0.39879772    -0.26200
C1416       C  0.94518897  0.06338916  0.38795128     0.06000
C1417       C  0.94495549  0.07600925  0.38208256    -0.31100
O1418       O  0.97049990  0.11354390  0.40092733    -0.22900
C1419       C  0.97847763  0.11242480  0.41148895    -0.02900
C1420       C  0.97849715  0.09970477  0.41702129    -0.17300
H1421       H  0.96990154  0.07266015  0.41756164     0.20700
H1422       H  0.95305353  0.10367775  0.38185165     0.19100
H1423       H  0.93955809  0.07920654  0.37330843     0.19000
H1424       H  0.98406722  0.09606153  0.42550871     0.14900
C1425       C  0.03661643  0.89572349  0.65770695     0.30300
C1426       C  0.04612056  0.89971824  0.66715400    -0.36000
C1427       C  0.05088060  0.91283134  0.66587032     0.16300
C1428       C  0.04669356  0.92135365  0.65588851     0.22100
C1429       C  0.03709249  0.91742448  0.64655867    -0.34200
C1430       C  0.03223572  0.90438970  0.64793628     0.16200
O1431       O  0.03088622  0.88389146  0.65692921    -0.26200
C1432       C  0.02263988  0.88508606  0.64661234     0.06000
C1433       C  0.02303465  0.89763339  0.64067908    -0.31100
O1434       O  0.05264591  0.93305470  0.65636296    -0.22900
C1435       C  0.06065701  0.93208996  0.66687087    -0.02900
C1436       C  0.05995248  0.91975147  0.67321743    -0.17300
H1437       H  0.04957182  0.89307445  0.67493442     0.20700
H1438       H  0.03366378  0.92405988  0.63875895     0.19100
H1439       H  0.01746443  0.90120323  0.63215735     0.19000
H1440       H  0.06543742  0.91634156  0.68185784     0.14900
C1441       C  0.12521366  0.04560922  0.60354991     0.30300
C1442       C  0.11468695  0.03737445  0.60761526    -0.36000
C1443       C  0.11514367  0.03288579  0.62085060     0.16300
C1444       C  0.12516962  0.03636971  0.62957327     0.22100
C1445       C  0.13578032  0.04451986  0.62545955    -0.34200
C1446       C  0.13542076  0.04887506  0.61214604     0.16200
O1447       O  0.12663222  0.05110555  0.59168768    -0.26200
C1448       C  0.13797508  0.05787519  0.59261751     0.06000
C1449       C  0.14394258  0.05678057  0.60509151    -0.31100
O1450       O  0.12363724  0.03090496  0.64146881    -0.22900
C1451       C  0.11256375  0.02372152  0.64027262    -0.02900
C1452       C  0.10686113  0.02459836  0.62766770    -0.17300
H1453       H  0.10671630  0.03462416  0.60091144     0.20700
H1454       H  0.14378781  0.04721009  0.63214096     0.19100
H1455       H  0.15301555  0.06143308  0.60855382     0.19000
H1456       H  0.09800100  0.01968783  0.62400913     0.14900
C1457       C  0.74181696  0.89785999  0.52026155     0.30300
C1458       C  0.75150402  0.90046407  0.51048862    -0.36000
C1459       C  0.76478254  0.89844546  0.51437395     0.16300
C1460       C  0.76824599  0.89405972  0.52695164     0.22100
C1461       C  0.75859243  0.89162569  0.53674822    -0.34200
C1462       C  0.74536013  0.89379072  0.53292398     0.16200
O1463       O  0.72881128  0.89904586  0.51884156    -0.26200
C1464       C  0.72403086  0.89589061  0.53081842     0.06000
C1465       C  0.73385995  0.89260150  0.53998446    -0.31100
O1466       O  0.78119091  0.89260108  0.52840100    -0.22900
C1467       C  0.78614825  0.89616318  0.51663012    -0.02900
C1468       C  0.77640516  0.89995857  0.50750355    -0.17300
H1469       H  0.74887820  0.90382007  0.50057870     0.20700
H1470       H  0.76122145  0.88830225  0.54666767     0.19100
H1471       H  0.73266874  0.88969147  0.55030845     0.19000
H1472       H  0.77768579  0.90322459  0.49729851     0.14900
C1473       C  0.88383886  0.94439181  0.44827378     0.30300
C1474       C  0.89380348  0.95358367  0.44484096    -0.36000
C1475       C  0.89267473  0.95947545  0.43219556     0.16300
C1476       C  0.88256494  0.95638807  0.42342316     0.22100
C1477       C  0.87254114  0.94725647  0.42689011    -0.34200
C1478       C  0.87355507  0.94151641  0.43963081     0.16200
O1479       O  0.88282621  0.93790569  0.45968639    -0.26200
C1480       C  0.87166467  0.93088724  0.45841547     0.06000
C1481       C  0.86545337  0.93276358  0.44615005    -0.31100
O1482       O  0.88348433  0.96307116  0.41210894    -0.22900
C1483       C  0.89423967  0.97064545  0.41372638    -0.02900
C1484       C  0.90033973  0.96884491  0.42604528    -0.17300
H1485       H  0.90179365  0.95607974  0.45161608     0.20700
H1486       H  0.86444568  0.94490691  0.42018728     0.19100
H1487       H  0.85630111  0.92834948  0.44258624     0.19000
H1488       H  0.90915653  0.97369423  0.42988077     0.14900
C1489       C  0.91516002  0.85778690  0.58268123     0.30300
C1490       C  0.90177709  0.85665540  0.57862752    -0.36000
C1491       C  0.89781261  0.86499510  0.56800709     0.16300
C1492       C  0.90650170  0.87363522  0.56175170     0.22100
C1493       C  0.91975196  0.87480689  0.56582930    -0.34200
C1494       C  0.92362251  0.86668607  0.57649152     0.16200
O1495       O  0.92106834  0.85123312  0.59252351    -0.26200
C1496       C  0.93337375  0.85621511  0.59265056     0.06000
C1497       C  0.93546359  0.86583435  0.58289622    -0.31100
O1498       O  0.90091394  0.88037107  0.55197160    -0.22900
C1499       C  0.88838826  0.87616403  0.55191887    -0.02900
C1500       C  0.88581943  0.86660959  0.56172881    -0.17300
H1501       H  0.89493533  0.84986651  0.58346482     0.20700
H1502       H  0.92656388  0.88168329  0.56107244     0.19100
H1503       H  0.94443893  0.87142673  0.58083235     0.19000
H1504       H  0.87656499  0.86149766  0.56379057     0.14900
C1505       C  0.41164361  0.99211337  0.28515736     0.30300
C1506       C  0.41239290  0.98640195  0.27238623    -0.36000
C1507       C  0.41408322  0.99534804  0.26172586     0.16300
C1508       C  0.41515162  0.00895953  0.26353321     0.22100
C1509       C  0.41421174  0.01468051  0.27628041    -0.34200
C1510       C  0.41233058  0.00575536  0.28691851     0.16200
O1511       O  0.41040806  0.98560453  0.29654190    -0.26200
C1512       C  0.41008889  0.99520458  0.30571308     0.06000
C1513       C  0.41117914  0.00795382  0.30029302    -0.31100
O1514       O  0.41704558  0.01543798  0.25222571    -0.22900
C1515       C  0.41704111  0.00588361  0.24301073    -0.02900
C1516       C  0.41517789  0.99317810  0.24834005    -0.17300
H1517       H  0.41177673  0.97572413  0.27087690     0.20700
H1518       H  0.41495298  0.02534750  0.27780151     0.19100
H1519       H  0.41147741  0.01741287  0.30548397     0.19000
H1520       H  0.41483612  0.98373059  0.24312903     0.14900
C1521       C  0.46030848  0.08640674  0.15666384     0.30300
C1522       C  0.47342546  0.09090832  0.15515235    -0.36000
C1523       C  0.47517068  0.10212758  0.14697791     0.16300
C1524       C  0.46471140  0.10870915  0.14094213     0.22100
C1525       C  0.45157795  0.10406903  0.14228119    -0.34200
C1526       C  0.44986207  0.09262758  0.15022924     0.16200
O1527       O  0.45648470  0.07597810  0.16371226    -0.26200
C1528       C  0.44344686  0.07532691  0.16159531     0.06000
C1529       C  0.43875670  0.08537851  0.15322459    -0.31100
O1530       O  0.46866606  0.11917522  0.13395626    -0.22900
C1531       C  0.48184011  0.11910354  0.13536891    -0.02900
C1532       C  0.48643243  0.10868435  0.14329308    -0.17300
H1533       H  0.48171344  0.08592492  0.15991727     0.20700
H1534       H  0.44331071  0.10895249  0.13737853     0.19100
H1535       H  0.42866057  0.08708238  0.14988548     0.19000
H1536       H  0.49658621  0.10639537  0.14606223     0.14900
C1537       C  0.61681429  0.00241935  0.78796116     0.30300
C1538       C  0.61675449  0.01291455  0.77868550    -0.36000
C1539       C  0.61685170  0.00918642  0.76522290     0.16300
C1540       C  0.61727859  0.99603684  0.76115231     0.22100
C1541       C  0.61734696  0.98552607  0.77043844    -0.34200
C1542       C  0.61695394  0.98925378  0.78391528     0.16200
O1543       O  0.61598080  0.00365131  0.80100953    -0.26200
C1544       C  0.61540103  0.99112722  0.80539719     0.06000
C1545       C  0.61597487  0.98172624  0.79521541    -0.31100
O1546       O  0.61690934  0.99484133  0.74806414    -0.22900
C1547       C  0.61608428  0.00737802  0.74371148    -0.02900
C1548       C  0.61600152  0.01672581  0.75394389    -0.17300
H1549       H  0.61625243  0.02325566  0.78175284     0.20700
H1550       H  0.61729673  0.97517530  0.76736372     0.19100
H1551       H  0.61545996  0.97096321  0.79601523     0.19000
H1552       H  0.61521566  0.02747555  0.75318313     0.14900
C1553       C  0.63350223  0.03551677  0.92046135     0.30300
C1554       C  0.64325272  0.04498084  0.92380185    -0.36000
C1555       C  0.64293951  0.04970665  0.93697301     0.16300
C1556       C  0.63358247  0.04549539  0.94613267     0.22100
C1557       C  0.62402754  0.03586972  0.94287454    -0.34200
C1558       C  0.62440052  0.03109982  0.92977354     0.16200
O1559       O  0.63164473  0.03006005  0.90864038    -0.26200
C1560       C  0.62127713  0.02200422  0.91047718     0.06000
C1561       C  0.61641147  0.02220412  0.92344669    -0.31100
O1562       O  0.63461377  0.05170725  0.95763619    -0.22900
C1563       C  0.64488195  0.05988123  0.95593580    -0.02900
C1564       C  0.65054884  0.05902204  0.94330681    -0.17300
H1565       H  0.65042974  0.04855408  0.91659561     0.20700
H1566       H  0.61666042  0.03251437  0.94999362     0.19100
H1567       H  0.60805702  0.01677856  0.92756035     0.19000
H1568       H  0.65876012  0.06472754  0.93928040     0.14900
C1569       C  0.58458489  0.12935391  0.07009000     0.30300
C1570       C  0.58803851  0.11898660  0.06139327    -0.36000
C1571       C  0.60080980  0.11962548  0.05587813     0.16300
C1572       C  0.60974563  0.12962405  0.05889146     0.22100
C1573       C  0.60621907  0.14014374  0.06750509    -0.34200
C1574       C  0.59327640  0.13964750  0.07284378     0.16200
O1575       O  0.57311342  0.13064421  0.07628190    -0.26200
C1576       C  0.57429088  0.14202691  0.08296741     0.06000
C1577       C  0.58661084  0.14814781  0.08117432    -0.31100
O1578       O  0.62123659  0.12805792  0.05266062    -0.22900
C1579       C  0.61948308  0.11703324  0.04543942    -0.02900
C1580       C  0.60695467  0.11141791  0.04702753    -0.17300
H1581       H  0.58119053  0.11100874  0.05901896     0.20700
H1582       H  0.61303157  0.14817512  0.06979884     0.19100
H1583       H  0.59016120  0.15737163  0.08550047     0.19000
H1584       H  0.60299181  0.10251890  0.04239232     0.14900
C1585       C  0.55505502  0.91601719  0.88696366     0.30300
C1586       C  0.55170139  0.90247981  0.88565644    -0.36000
C1587       C  0.54274275  0.89744305  0.89513985     0.16300
C1588       C  0.53735253  0.90522335  0.90512343     0.22100
C1589       C  0.54071166  0.91873290  0.90644712    -0.34200
C1590       C  0.54976555  0.92371662  0.89706379     0.16200
O1591       O  0.56348239  0.92273247  0.87941443    -0.26200
C1592       C  0.56364975  0.93484229  0.88484593     0.06000
C1593       C  0.55530143  0.93602166  0.89584218    -0.31100
O1594       O  0.52920016  0.89848409  0.91289898    -0.22900
C1595       C  0.52941305  0.88619793  0.90788976    -0.02900
C1596       C  0.53768390  0.88494185  0.89684088    -0.17300
H1597       H  0.55589036  0.89628089  0.87789237     0.20700
H1598       H  0.53666405  0.92488590  0.91432586     0.19100
H1599       H  0.55363646  0.94465702  0.90209667     0.19000
H1600       H  0.53963875  0.87614014  0.89091382     0.14900
C1601       C  0.37255415  0.96072474  0.10620298     0.30300
C1602       C  0.36983596  0.97276595  0.11284053    -0.36000
C1603       C  0.37877109  0.97632912  0.12298702     0.16300
C1604       C  0.38941867  0.96839628  0.12658887     0.22100
C1605       C  0.39223863  0.95646724  0.11983403    -0.34200
C1606       C  0.38351025  0.95308297  0.10947727     0.16200
O1607       O  0.36566996  0.95559283  0.09625240    -0.26200
C1608       C  0.37244890  0.94466096  0.09297260     0.06000
C1609       C  0.38367104  0.94262455  0.10081636    -0.31100
O1610       O  0.39636137  0.97350400  0.13649159    -0.22900
C1611       C  0.39025538  0.98498873  0.13910053    -0.02900
C1612       C  0.37929006  0.98733777  0.13096870    -0.17300
H1613       H  0.36145099  0.97899453  0.11016614     0.20700
H1614       H  0.40073691  0.95033818  0.12237423     0.19100
H1615       H  0.39085239  0.93459203  0.10023063     0.19000
H1616       H  0.37262541  0.99582689  0.13105089     0.14900
C1617       C  0.42844045  0.86249308  0.97974610     0.30300
C1618       C  0.41466222  0.86287657  0.98200368    -0.36000
C1619       C  0.41030536  0.87196537  0.99170770     0.16300
C1620       C  0.41892719  0.87996419  0.99882336     0.22100
C1621       C  0.43266515  0.87964538  0.99651470    -0.34200
C1622       C  0.43698922  0.87072015  0.98669330     0.16200
O1623       O  0.43467053  0.85511481  0.97081432    -0.26200
C1624       C  0.44732008  0.85882362  0.97198250     0.06000
C1625       C  0.44934413  0.86849291  0.98168902    -0.31100
O1626       O  0.41275668  0.88757100  0.00755558    -0.22900
C1627       C  0.39999541  0.88449893  0.00596194    -0.02900
C1628       C  0.39784826  0.87489361  0.99618579    -0.17300
H1629       H  0.40781856  0.85665839  0.97647648     0.20700
H1630       H  0.43948605  0.88602052  0.00189212     0.19100
H1631       H  0.45855028  0.87335351  0.98444889     0.19000
H1632       H  0.38852257  0.87054404  0.99302015     0.14900
C1633       C  0.59250822  0.51364821  0.28651132     0.30300
C1634       C  0.58484484  0.51443893  0.27482702    -0.36000
C1635       C  0.59109252  0.51024739  0.26303545     0.16300
C1636       C  0.60411773  0.50590097  0.26267288     0.22100
C1637       C  0.61175159  0.50499031  0.27440175    -0.34200
C1638       C  0.60538362  0.50887243  0.28626980     0.16200
O1639       O  0.58850499  0.51674198  0.29865158    -0.26200
C1640       C  0.59885075  0.51370738  0.30637506     0.06000
C1641       C  0.60963439  0.50871656  0.29921975    -0.31100
O1642       O  0.60787524  0.50228377  0.25056785    -0.22900
C1643       C  0.59704043  0.50413988  0.24314480    -0.02900
C1644       C  0.58628978  0.50901458  0.25038476    -0.17300
H1645       H  0.57462158  0.51782672  0.27496726     0.20700
H1646       H  0.62185072  0.50124817  0.27431851     0.19100
H1647       H  0.61919897  0.50551274  0.30300474     0.19000
H1648       H  0.57633782  0.51114071  0.24685176     0.14900
C1649       C  0.63765233  0.52629683  0.12592160     0.30300
C1650       C  0.64639999  0.53651486  0.12197387    -0.36000
C1651       C  0.64633474  0.53979633  0.10834152     0.16300
C1652       C  0.63807337  0.53359383  0.09927723     0.22100
C1653       C  0.62949057  0.52326703  0.10317953    -0.34200
C1654       C  0.62969180  0.51987449  0.11674673     0.16200
O1655       O  0.63583785  0.52180339  0.13818751    -0.26200
C1656       C  0.62670562  0.51227495  0.13679974     0.06000
C1657       C  0.62257666  0.51062110  0.12366090    -0.31100
O1658       O  0.63917927  0.53860845  0.08716518    -0.22900
C1659       C  0.64841928  0.54802659  0.08839912    -0.02900
C1660       C  0.65329910  0.54917036  0.10133916    -0.17300
H1661       H  0.65272540  0.54162127  0.12904573     0.20700
H1662       H  0.62300777  0.51830740  0.09614430     0.19100
H1663       H  0.61518110  0.50380147  0.11979906     0.19000
H1664       H  0.66059982  0.55615208  0.10509370     0.14900
C1665       C  0.50154596  0.26737677  0.11921574     0.30300
C1666       C  0.51188242  0.25797473  0.11959644    -0.36000
C1667       C  0.50837147  0.24480287  0.11648326     0.16300
C1668       C  0.49553151  0.24106732  0.11337037     0.22100
C1669       C  0.48520014  0.25051285  0.11283148    -0.34200
C1670       C  0.48874270  0.26373049  0.11585425     0.16200
O1671       O  0.50261327  0.28020958  0.12191373    -0.26200
C1672       C  0.49034750  0.28490033  0.12022691     0.06000
C1673       C  0.48129070  0.27509642  0.11642510    -0.31100
O1674       O  0.49442564  0.22809118  0.11134906    -0.22900
C1675       C  0.50675981  0.22351983  0.11301031    -0.02900
C1676       C  0.51585195  0.23347945  0.11614464    -0.17300
H1677       H  0.52195204  0.26072630  0.12222575     0.20700
H1678       H  0.47509624  0.24773309  0.11036491     0.19100
H1679       H  0.47076291  0.27616604  0.11444098     0.19000
H1680       H  0.52636001  0.23245124  0.11825675     0.14900
C1681       C  0.54149507  0.42228294  0.16700661     0.30300
C1682       C  0.52875354  0.41672366  0.16824868    -0.36000
C1683       C  0.52635916  0.40512909  0.16080339     0.16300
C1684       C  0.53589290  0.39921215  0.15285683     0.22100
C1685       C  0.54860931  0.40486688  0.15149232    -0.34200
C1686       C  0.55092987  0.41662137  0.15876126     0.16200
O1687       O  0.54579568  0.43323026  0.17290895    -0.26200
C1688       C  0.55809510  0.43471693  0.16824905     0.06000
C1689       C  0.56180188  0.42471475  0.15936201    -0.31100
O1690       O  0.53139260  0.38847550  0.14667726    -0.22900
C1691       C  0.51876634  0.38765525  0.15060090    -0.02900
C1692       C  0.51509799  0.39776896  0.15934451    -0.17300
H1693       H  0.52116916  0.42123544  0.17443381     0.20700
H1694       H  0.55609205  0.40053133  0.14506248     0.19100
H1695       H  0.57115520  0.42357123  0.15414416     0.19000
H1696       H  0.50546292  0.39952279  0.16382951     0.14900
C1697       C  0.50076114  0.75900889  0.92012743     0.30300
C1698       C  0.49569639  0.74596770  0.92049731    -0.36000
C1699       C  0.50514766  0.73566168  0.92030533     0.16300
C1700       C  0.51867630  0.73798711  0.92001882     0.22100
C1701       C  0.52373835  0.75104155  0.91937714    -0.34200
C1702       C  0.51426664  0.76135890  0.91933452     0.16200
O1703       O  0.49373946  0.77012486  0.92075390    -0.26200
C1704       C  0.50284498  0.77973563  0.92011899     0.06000
C1705       C  0.51578050  0.77487613  0.91912157    -0.31100
O1706       O  0.52570327  0.72684238  0.92050568    -0.22900
C1707       C  0.51652764  0.71727091  0.92086782    -0.02900
C1708       C  0.50358302  0.72217942  0.92069526    -0.17300
H1709       H  0.48512906  0.74399397  0.92105373     0.20700
H1710       H  0.53431423  0.75302199  0.91907795     0.19100
H1711       H  0.52497030  0.78048878  0.91882398     0.19000
H1712       H  0.49436866  0.71661456  0.92112224     0.14900
C1713       C  0.60082223  0.61131544  0.99333805     0.30300
C1714       C  0.58723533  0.61101732  0.99012929    -0.36000
C1715       C  0.58293621  0.62045028  0.98070369     0.16300
C1716       C  0.59134560  0.62969758  0.97495371     0.22100
C1717       C  0.60495402  0.62994894  0.97811738    -0.34200
C1718       C  0.60929286  0.62040027  0.98742689     0.16200
O1719       O  0.60701230  0.60329636  0.00176348    -0.26200
C1720       C  0.61964863  0.60722807  0.00118105     0.06000
C1721       C  0.62164012  0.61783243  0.99241300    -0.31100
O1722       O  0.58515010  0.63762957  0.96642913    -0.22900
C1723       C  0.57263875  0.63329009  0.96663046    -0.02900
C1724       C  0.57071105  0.62260185  0.97530052    -0.17300
H1725       H  0.58050708  0.60385865  0.99458103     0.20700
H1726       H  0.61170380  0.63702459  0.97357153     0.19100
H1727       H  0.63083639  0.62291935  0.99005956     0.19000
H1728       H  0.56159830  0.61723842  0.97736625     0.14900
C1729       C  0.40945740  0.37107817  0.08774835     0.30300
C1730       C  0.39760399  0.36857861  0.08083551    -0.36000
C1731       C  0.39347729  0.37861676  0.07201693     0.16300
C1732       C  0.40063774  0.39019747  0.06996568     0.22100
C1733       C  0.41239730  0.39276804  0.07699028    -0.34200
C1734       C  0.41638923  0.38284362  0.08598370     0.16200
O1735       O  0.41535140  0.36293241  0.09621617    -0.26200
C1736       C  0.42605846  0.36968432  0.10006766     0.06000
C1737       C  0.42718443  0.38215932  0.09409408    -0.31100
O1738       O  0.39508421  0.39809610  0.06106560    -0.22900
C1739       C  0.38413464  0.39157437  0.05753325    -0.02900
C1740       C  0.38258531  0.37940983  0.06402192    -0.17300
H1741       H  0.39202400  0.35944734  0.08220370     0.20700
H1742       H  0.41803747  0.40184973  0.07553537     0.19100
H1743       H  0.43506287  0.38943101  0.09519152     0.19000
H1744       H  0.37467347  0.37217862  0.06290466     0.14900
C1745       C  0.40674768  0.50476731  0.78740597     0.30300
C1746       C  0.40460475  0.50961558  0.77442508    -0.36000
C1747       C  0.40571885  0.50020922  0.76410340     0.16300
C1748       C  0.40891433  0.48699861  0.76638002     0.22100
C1749       C  0.41092580  0.48213306  0.77934586    -0.34200
C1750       C  0.40959183  0.49147180  0.78966403     0.16200
O1751       O  0.40625528  0.51177243  0.79855070    -0.26200
C1752       C  0.40858183  0.50276988  0.80805359     0.06000
C1753       C  0.41067935  0.48998406  0.80310523    -0.31100
O1754       O  0.40967299  0.47999085  0.75528058    -0.22900
C1755       C  0.40679551  0.48877773  0.74574436    -0.02900
C1756       C  0.40421262  0.50151942  0.75065331    -0.17300
H1757       H  0.40220814  0.51997612  0.77250920     0.20700
H1758       H  0.41331104  0.47176975  0.78126127     0.19100
H1759       H  0.41288795  0.48095661  0.80862084     0.19000
H1760       H  0.40174890  0.51046464  0.74511643     0.14900
C1761       C  0.45913759  0.58164934  0.89111962     0.30300
C1762       C  0.46244215  0.59511697  0.88912588    -0.36000
C1763       C  0.47113172  0.60070199  0.89852351     0.16300
C1764       C  0.47625000  0.59348693  0.90907870     0.22100
C1765       C  0.47284609  0.58009192  0.91115479    -0.34200
C1766       C  0.46411275  0.57455317  0.90182278     0.16200
O1767       O  0.45137058  0.57434372  0.88345732    -0.26200
C1768       C  0.45131235  0.56247696  0.88942123     0.06000
C1769       C  0.45903221  0.56203349  0.90091011    -0.31100
O1770       O  0.48452363  0.60050956  0.91639557    -0.22900
C1771       C  0.48466618  0.61241586  0.91053278    -0.02900
C1772       C  0.47648459  0.61317172  0.89937757    -0.17300
H1773       H  0.45860680  0.60079243  0.88078690     0.20700
H1774       H  0.47682100  0.57436528  0.91939728     0.19100
H1775       H  0.46077337  0.55367033  0.90752712     0.19000
H1776       H  0.47495610  0.62154699  0.89272783     0.14900
C1777       C  0.39298931  0.46706916  0.93356913     0.30300
C1778       C  0.39389098  0.46454650  0.94729302    -0.36000
C1779       C  0.38430345  0.45587101  0.95255509     0.16300
C1780       C  0.37444326  0.45016007  0.94487442     0.22100
C1781       C  0.37364236  0.45256552  0.93111779    -0.34200
C1782       C  0.38328742  0.46117398  0.92582900     0.16200
O1783       O  0.40067983  0.47515198  0.92665871    -0.26200
C1784       C  0.39591362  0.47436048  0.91431272     0.06000
C1785       C  0.38511780  0.46577144  0.91317312    -0.31100
O1786       O  0.36626520  0.44269762  0.95194401    -0.22900
C1787       C  0.37102972  0.44355122  0.96427817    -0.02900
C1788       C  0.38227377  0.45156934  0.96525789    -0.17300
H1789       H  0.40144410  0.46913620  0.95345258     0.20700
H1790       H  0.36595470  0.44815290  0.92500088     0.19100
H1791       H  0.37929018  0.46350529  0.90439642     0.19000
H1792       H  0.38796257  0.45405394  0.97407003     0.14900
C1793       C  0.24045678  0.40320012  0.02753807     0.30300
C1794       C  0.25281947  0.40256450  0.03395095    -0.36000
C1795       C  0.26399432  0.40274840  0.02562550     0.16300
C1796       C  0.26311807  0.40370217  0.01192790     0.22100
C1797       C  0.25071139  0.40415764  0.00548106    -0.34200
C1798       C  0.23948958  0.40377329  0.01382237     0.16200
O1799       O  0.22877085  0.40343961  0.03345163    -0.26200
C1800       C  0.22014855  0.40398393  0.02342226     0.06000
C1801       C  0.22622243  0.40414896  0.01094705    -0.31100
O1802       O  0.27491615  0.40419156  0.00616382    -0.22900
C1803       C  0.28340637  0.40335438  0.01631837    -0.02900
C1804       C  0.27716428  0.40238523  0.02864546    -0.17300
H1805       H  0.25366367  0.40204642  0.04469065     0.20700
H1806       H  0.24987160  0.40484113  0.99475076     0.19100
H1807       H  0.22156159  0.40478477  0.00124410     0.19000
H1808       H  0.28167329  0.40181070  0.03842419     0.14900
C1809       C  0.12661433  0.45278908  0.09792448     0.30300
C1810       C  0.11603687  0.46080764  0.10222859    -0.36000
C1811       C  0.11726261  0.46626959  0.11500647     0.16300
C1812       C  0.12807957  0.46392548  0.12314231     0.22100
C1813       C  0.13879765  0.45598713  0.11875591    -0.34200
C1814       C  0.13762655  0.45059394  0.10584534     0.16200
O1815       O  0.12739117  0.44668722  0.08633218    -0.26200
C1816       C  0.13911073  0.44054342  0.08666502     0.06000
C1817       C  0.14597817  0.44263641  0.09856370    -0.31100
O1818       O  0.12690610  0.46987479  0.13486281    -0.22900
C1819       C  0.11524152  0.47618737  0.13409025    -0.02900
C1820       C  0.10887123  0.47431500  0.12194082    -0.17300
H1821       H  0.10741837  0.46264885  0.09603062     0.20700
H1822       H  0.14740647  0.45413034  0.12496149     0.19100
H1823       H  0.15562472  0.43879619  0.10144164     0.19000
H1824       H  0.09933975  0.47818678  0.11873679     0.14900
C1825       C  0.76948358  0.60244985  0.02401779     0.30300
C1826       C  0.76014104  0.60183971  0.03442724    -0.36000
C1827       C  0.74683251  0.59994634  0.03060011     0.16300
C1828       C  0.74296466  0.59895339  0.01743911     0.22100
C1829       C  0.75231053  0.59940274  0.00705524    -0.34200
C1830       C  0.76561949  0.60108998  0.01089010     0.16200
O1831       O  0.78248042  0.60390450  0.02529881    -0.26200
C1832       C  0.78698951  0.60331212  0.01283009     0.06000
C1833       C  0.77694489  0.60153269  0.00346528    -0.31100
O1834       O  0.73000608  0.59739536  0.01610251    -0.22900
C1835       C  0.72550528  0.59720710  0.02857687    -0.02900
C1836       C  0.73553277  0.59868816  0.03802866    -0.17300
H1837       H  0.76305432  0.60265716  0.04477263     0.20700
H1838       H  0.74941958  0.59839767  0.99671962     0.19100
H1839       H  0.77787886  0.60059381  0.99276068     0.19000
H1840       H  0.73460230  0.59891937  0.04877212     0.14900
C1841       C  0.91011681  0.62201608  0.05142895     0.30300
C1842       C  0.92265150  0.61953465  0.05702025    -0.36000
C1843       C  0.92747902  0.62928130  0.06577629     0.16300
C1844       C  0.92055478  0.64077805  0.06880916     0.22100
C1845       C  0.90791915  0.64322751  0.06326645    -0.34200
C1846       C  0.90301631  0.63338805  0.05454953     0.16200
O1847       O  0.90374461  0.61415950  0.04305630    -0.26200
C1848       C  0.89231902  0.62047625  0.04082068     0.06000
C1849       C  0.89129139  0.63250257  0.04772174    -0.31100
O1850       O  0.92710730  0.64854788  0.07721636    -0.22900
C1851       C  0.93832389  0.64184856  0.07961717    -0.02900
C1852       C  0.93903195  0.62979961  0.07276667    -0.17300
H1853       H  0.92824185  0.61059183  0.05473366     0.20700
H1854       H  0.90229586  0.65213116  0.06561340     0.19100
H1855       H  0.88311940  0.63953784  0.04770431     0.19000
H1856       H  0.94694394  0.62247292  0.07286284     0.14900
C1857       C  0.03413120  0.59536489  0.13837385     0.30300
C1858       C  0.03745140  0.58190435  0.13637119    -0.36000
C1859       C  0.04562171  0.57605962  0.14610316     0.16300
C1860       C  0.05019330  0.58293975  0.15709148     0.22100
C1861       C  0.04703800  0.59648053  0.15898284    -0.34200
C1862       C  0.03889740  0.60235533  0.14921022     0.16200
O1863       O  0.02606900  0.60257374  0.13088861    -0.26200
C1864       C  0.02572321  0.61439195  0.13693024     0.06000
C1865       C  0.03360378  0.61487416  0.14833324    -0.31100
O1866       O  0.05741754  0.57537156  0.16511282    -0.22900
C1867       C  0.05755175  0.56351742  0.15911321    -0.02900
C1868       C  0.05039123  0.56338830  0.14723674    -0.17300
H1869       H  0.03373507  0.57631460  0.12793673     0.20700
H1870       H  0.05051391  0.60198939  0.16756930     0.19100
H1871       H  0.03482556  0.62306615  0.15524299     0.19000
H1872       H  0.04883588  0.55512976  0.14047289     0.14900
C1873       C  0.88264350  0.52393297  0.93019540     0.30300
C1874       C  0.88479138  0.52784323  0.94344767    -0.36000
C1875       C  0.87623455  0.53772403  0.94839565     0.16300
C1876       C  0.86613366  0.54326545  0.94088832     0.22100
C1877       C  0.86403628  0.53941356  0.92758935    -0.34200
C1878       C  0.87271069  0.52963545  0.92258233     0.16200
O1879       O  0.88950501  0.51488388  0.92358454    -0.26200
C1880       C  0.88399423  0.51484525  0.91152555     0.06000
C1881       C  0.87350963  0.52385499  0.91030156    -0.31100
O1882       O  0.85934387  0.55236553  0.94753425    -0.22900
C1883       C  0.86527082  0.55274970  0.95939802    -0.02900
C1884       C  0.87584852  0.54386008  0.96049653    -0.17300
H1885       H  0.89264575  0.52354183  0.94945258     0.20700
H1886       H  0.85625375  0.54379702  0.92154895     0.19100
H1887       H  0.86731399  0.52576291  0.90168500     0.19000
H1888       H  0.88232791  0.54220488  0.96895396     0.14900
C1889       C  0.10333224  0.37411659  0.98372779     0.30300
C1890       C  0.09892490  0.36277424  0.97672930    -0.36000
C1891       C  0.08567161  0.36310225  0.97221222     0.16300
C1892       C  0.07743792  0.37393525  0.97426161     0.22100
C1893       C  0.08180880  0.38520565  0.98128468    -0.34200
C1894       C  0.09493256  0.38477883  0.98597836     0.16200
O1895       O  0.11516468  0.37582723  0.98924300    -0.26200
C1896       C  0.11421053  0.38766409  0.99522673     0.06000
C1897       C  0.10184533  0.39364869  0.99353413    -0.31100
O1898       O  0.06542586  0.37214831  0.96930995    -0.22900
C1899       C  0.06584105  0.35994453  0.96410117    -0.02900
C1900       C  0.07820000  0.35380841  0.96562132    -0.17300
H1901       H  0.10529456  0.35421681  0.97512318     0.20700
H1902       H  0.07534014  0.39363260  0.98316634     0.19100
H1903       H  0.09840990  0.40310462  0.99745085     0.19000
H1904       H  0.08121493  0.34396444  0.96237488     0.14900
C1905       C  0.95927479  0.38763959  0.89973859     0.30300
C1906       C  0.95107697  0.39117240  0.88888453    -0.36000
C1907       C  0.94540542  0.40403242  0.88935549     0.16300
C1908       C  0.94756508  0.41263646  0.89986717     0.22100
C1909       C  0.95576373  0.40915730  0.91058788    -0.34200
C1910       C  0.96153420  0.39647639  0.91002658     0.16200
O1911       O  0.96579797  0.37627441  0.90139117    -0.26200
C1912       C  0.97238928  0.37803620  0.91279669     0.06000
C1913       C  0.97011159  0.39041984  0.91855078    -0.31100
O1914       O  0.94139227  0.42411391  0.89842157    -0.22900
C1915       C  0.93521468  0.42303932  0.88677213    -0.02900
C1916       C  0.93734291  0.41074637  0.88060285    -0.17300
H1917       H  0.94935485  0.38445137  0.88063395     0.20700
H1918       H  0.95762806  0.41594745  0.91875119     0.19100
H1919       H  0.97420152  0.39438631  0.92770190     0.19000
H1920       H  0.93352645  0.40729375  0.87113160     0.14900
C1921       C  0.76643974  0.39970777  0.51843806     0.30300
C1922       C  0.75664286  0.39908852  0.50847339    -0.36000
C1923       C  0.74341212  0.39857463  0.51293510     0.16300
C1924       C  0.74005647  0.39842394  0.52627569     0.22100
C1925       C  0.74984753  0.39906322  0.53623388    -0.34200
C1926       C  0.76305588  0.39981367  0.53176927     0.16200
O1927       O  0.77939370  0.40074103  0.51652565    -0.26200
C1928       C  0.78435716  0.40164532  0.52879656     0.06000
C1929       C  0.77464448  0.40113604  0.53867063    -0.31100
O1930       O  0.72707144  0.39833276  0.52820164    -0.22900
C1931       C  0.72202839  0.39859844  0.51593564    -0.02900
C1932       C  0.73172854  0.39874229  0.50603748    -0.17300
H1933       H  0.75914217  0.39931735  0.49798817     0.20700
H1934       H  0.74732686  0.39928775  0.54671391     0.19100
H1935       H  0.77592529  0.40176139  0.54936039     0.19000
H1936       H  0.73035795  0.39919998  0.49534808     0.14900
C1937       C  0.00396736  0.26288690  0.43023545     0.30300
C1938       C  0.01391157  0.25308468  0.43070730    -0.36000
C1939       C  0.00950485  0.23982662  0.43105566     0.16300
C1940       C  0.99621767  0.23638672  0.43081246     0.22100
C1941       C  0.98622971  0.24622313  0.43061520    -0.34200
C1942       C  0.99065226  0.25953350  0.43039340     0.16200
O1943       O  0.00592125  0.27586879  0.42941114    -0.26200
C1944       C  0.99371339  0.28097153  0.42919716     0.06000
C1945       C  0.98379043  0.27128870  0.42987602    -0.31100
O1946       O  0.99442177  0.22332503  0.43054406    -0.22900
C1947       C  0.00672871  0.21838877  0.43078238    -0.02900
C1948       C  0.01648862  0.22819862  0.43119330    -0.17300
H1949       H  0.02437177  0.25561906  0.43061329     0.20700
H1950       H  0.97577180  0.24368038  0.43044992     0.19100
H1951       H  0.97311752  0.27269951  0.42969981     0.19000
H1952       H  0.02718139  0.22694216  0.43121491     0.14900
C1953       C  0.91931138  0.36989921  0.47314429     0.30300
C1954       C  0.90575365  0.36893044  0.47636282    -0.36000
C1955       C  0.90094631  0.37834761  0.48552282     0.16300
C1956       C  0.90898018  0.38790030  0.49128887     0.22100
C1957       C  0.92248924  0.38896341  0.48796595    -0.34200
C1958       C  0.92723421  0.37969997  0.47864491     0.16200
O1959       O  0.92590838  0.36213585  0.46482896    -0.26200
C1960       C  0.93815482  0.36716635  0.46487897     0.06000
C1961       C  0.93954964  0.37812779  0.47325046    -0.31100
O1962       O  0.90249494  0.39549195  0.49981762    -0.22900
C1963       C  0.89009768  0.39087751  0.49937640    -0.02900
C1964       C  0.88852250  0.38023525  0.49062746    -0.17300
H1965       H  0.89939877  0.36139391  0.47200779     0.20700
H1966       H  0.92884321  0.39650562  0.49231586     0.19100
H1967       H  0.94838756  0.38397495  0.47518448     0.19000
H1968       H  0.87959586  0.37459024  0.48852146     0.14900
C1969       C  0.26515424  0.59404035  0.52457108     0.30300
C1970       C  0.25593097  0.59503648  0.51410117    -0.36000
C1971       C  0.24246838  0.59411270  0.51769098     0.16300
C1972       C  0.23833098  0.59252908  0.53071129     0.22100
C1973       C  0.24756918  0.59132294  0.54117395    -0.34200
C1974       C  0.26105845  0.59206807  0.53755332     0.16200
O1975       O  0.27821766  0.59474083  0.52345461    -0.26200
C1976       C  0.28260050  0.59304055  0.53586275     0.06000
C1977       C  0.27236111  0.59127108  0.54505949    -0.31100
O1978       O  0.22523687  0.59237349  0.53182754    -0.22900
C1979       C  0.22094464  0.59368543  0.51932832    -0.02900
C1980       C  0.23123169  0.59472993  0.51010898    -0.17300
H1981       H  0.25903536  0.59646646  0.50387636     0.20700
H1982       H  0.24446142  0.58995219  0.55140656     0.19100
H1983       H  0.27313717  0.58974972  0.55571220     0.19000
H1984       H  0.23051638  0.59603876  0.49942420     0.14900
C1985       C  0.00731123  0.76087280  0.63461713     0.30300
C1986       C  0.01775132  0.75161154  0.63366459    -0.36000
C1987       C  0.01410755  0.73810596  0.63427016     0.16300
C1988       C  0.00111215  0.73397603  0.63589108     0.22100
C1989       C  0.99065746  0.74323844  0.63674799    -0.34200
C1990       C  0.99428106  0.75674419  0.63594174     0.16200
O1991       O  0.00843325  0.77398829  0.63412252    -0.26200
C1992       C  0.99594219  0.77831224  0.63497824     0.06000
C1993       C  0.98671198  0.76802857  0.63607875    -0.31100
O1994       O  0.99996597  0.72085106  0.63604199    -0.22900
C1995       C  0.01237702  0.71652211  0.63436790    -0.02900
C1996       C  0.02158537  0.72681863  0.63319852    -0.17300
H1997       H  0.02797984  0.75471496  0.63237986     0.20700
H1998       H  0.98040311  0.74013017  0.63778751     0.19100
H1999       H  0.97600556  0.76877616  0.63692242     0.19000
H2000       H  0.03221113  0.72608824  0.63163004     0.14900
C2001       C  0.08036411  0.62791280  0.56904353     0.30300
C2002       C  0.08347042  0.61880609  0.55894540    -0.36000
C2003       C  0.09669472  0.61876339  0.55462086     0.16300
C2004       C  0.10633520  0.62697206  0.55994818     0.22100
C2005       C  0.10318672  0.63622610  0.57002572    -0.34200
C2006       C  0.08983358  0.63640822  0.57424893     0.16200
O2007       O  0.06862745  0.62939015  0.57464942    -0.26200
C2008       C  0.07045513  0.63908513  0.58348176     0.06000
C2009       C  0.08344934  0.64392247  0.58365902    -0.31100
O2010       O  0.11813857  0.62498465  0.55445874    -0.22900
C2011       C  0.11590168  0.61548237  0.54543713    -0.02900
C2012       C  0.10273663  0.61128992  0.54511336    -0.17300
H2013       H  0.07607459  0.61218128  0.55476059     0.20700
H2014       H  0.11059901  0.64279475  0.57426514     0.19100
H2015       H  0.08762497  0.65157263  0.59000848     0.19000
H2016       H  0.09827221  0.60371774  0.53886979     0.14900
C2017       C  0.10665220  0.48878541  0.28210189     0.30300
C2018       C  0.10636760  0.48358729  0.26911485    -0.36000
C2019       C  0.10552960  0.49298524  0.25875276     0.16300
C2020       C  0.10478067  0.50655768  0.26099581     0.22100
C2021       C  0.10526800  0.51176551  0.27397459    -0.34200
C2022       C  0.10633296  0.50237789  0.28432474     0.16200
O2023       O  0.10710710  0.48181902  0.29327938    -0.26200
C2024       C  0.10729656  0.49108552  0.30277502     0.06000
C2025       C  0.10690042  0.50404744  0.29777971    -0.31100
O2026       O  0.10354833  0.51348784  0.24985222    -0.22900
C2027       C  0.10371785  0.50423818  0.24033591    -0.02900
C2028       C  0.10499382  0.49131800  0.24529418    -0.17300
H2029       H  0.10669653  0.47295852  0.26722231     0.20700
H2030       H  0.10477636  0.52238618  0.27587702     0.19100
H2031       H  0.10667921  0.51333035  0.30328275     0.19000
H2032       H  0.10518765  0.48203476  0.23979063     0.14900
C2033       C  0.05459903  0.41404799  0.38658519     0.30300
C2034       C  0.05068254  0.40062886  0.38509069    -0.36000
C2035       C  0.04170929  0.39570394  0.39469137     0.16300
C2036       C  0.03682340  0.40354076  0.40488303     0.22100
C2037       C  0.04078886  0.41685477  0.40642226    -0.34200
C2038       C  0.04984545  0.42168796  0.39697959     0.16200
O2039       O  0.06294605  0.42074986  0.37887642    -0.26200
C2040       C  0.06359197  0.43277170  0.38453536     0.06000
C2041       C  0.05564902  0.43387837  0.39582922    -0.31100
O2042       O  0.02834163  0.39713045  0.41256474    -0.22900
C2043       C  0.02782579  0.38492420  0.40739901    -0.02900
C2044       C  0.03598457  0.38340031  0.39626245    -0.17300
H2045       H  0.05439192  0.39446873  0.37705898     0.20700
H2046       H  0.03707997  0.42301744  0.41445575     0.19100
H2047       H  0.05429852  0.44244416  0.40224996     0.19000
H2048       H  0.03728166  0.37463652  0.39010389     0.14900
C2049       C  0.12684452  0.54858009  0.44320477     0.30300
C2050       C  0.11646145  0.54036715  0.43879094    -0.36000
C2051       C  0.11789809  0.53500988  0.42597533     0.16300
C2052       C  0.12869921  0.53767843  0.41791171     0.22100
C2053       C  0.13912622  0.54590815  0.42234690    -0.34200
C2054       C  0.13778597  0.55112175  0.43528804     0.16200
O2055       O  0.12764950  0.55434694  0.45497832    -0.26200
C2056       C  0.13931829  0.56059434  0.45470536     0.06000
C2057       C  0.14609022  0.55892725  0.44270600    -0.31100
O2058       O  0.12807333  0.53131190  0.40638909    -0.22900
C2059       C  0.11678435  0.52439414  0.40719379    -0.02900
C2060       C  0.11006214  0.52633906  0.41914911    -0.17300
H2061       H  0.10796019  0.53811428  0.44501563     0.20700
H2062       H  0.14777741  0.54790173  0.41624540     0.19100
H2063       H  0.15570186  0.56287689  0.43987976     0.19000
H2064       H  0.10083022  0.52185300  0.42241975     0.14900
C2065       C  0.89686651  0.50402700  0.76513491     0.30300
C2066       C  0.89504089  0.50847049  0.77826864    -0.36000
C2067       C  0.89481334  0.49852523  0.78813250     0.16300
C2068       C  0.89644740  0.48513853  0.78531890     0.22100
C2069       C  0.89803745  0.48067064  0.77216337    -0.34200
C2070       C  0.89808077  0.49060070  0.76228299     0.16200
O2071       O  0.89774486  0.51161017  0.75439160    -0.26200
C2072       C  0.89932726  0.50289455  0.74452234     0.06000
C2073       C  0.89953134  0.48968932  0.74883481    -0.31100
O2074       O  0.89654504  0.47764566  0.79615367    -0.22900
C2075       C  0.89478402  0.48633838  0.80602014    -0.02900
C2076       C  0.89356848  0.49945909  0.80160435    -0.17300
H2077       H  0.89401615  0.51895461  0.78064886     0.20700
H2078       H  0.89929252  0.47020494  0.76980716     0.19100
H2079       H  0.90086930  0.48074993  0.74293374     0.19000
H2080       H  0.89236766  0.50842436  0.80749045     0.14900
C2081       C  0.95631236  0.57619541  0.65080770     0.30300
C2082       C  0.96368327  0.58048758  0.63970468    -0.36000
C2083       C  0.97035597  0.59270203  0.64111354     0.16300
C2084       C  0.96963185  0.60027390  0.65257230     0.22100
C2085       C  0.96232514  0.59593436  0.66370497    -0.34200
C2086       C  0.95579624  0.58362736  0.66236494     0.16200
O2087       O  0.94950637  0.56499239  0.65173000    -0.26200
C2088       C  0.94462583  0.56516721  0.66407060     0.06000
C2089       C  0.94821755  0.57653292  0.67117238    -0.31100
O2090       O  0.97652570  0.61143900  0.65167609    -0.22900
C2091       C  0.98187970  0.61094105  0.63955153    -0.02900
C2092       C  0.97843165  0.59948115  0.63253078    -0.17300
H2093       H  0.96426671  0.57465487  0.63065558     0.20700
H2094       H  0.96184242  0.60170608  0.67279604     0.19100
H2095       H  0.94566630  0.57915197  0.68131563     0.19000
H2096       H  0.98135001  0.59664209  0.62254371     0.14900
C2097       C  0.86764231  0.45011786  0.60989381     0.30300
C2098       C  0.86627365  0.45361095  0.62339270    -0.36000
C2099       C  0.87566897  0.46273652  0.62833135     0.16300
C2100       C  0.88558004  0.46815016  0.62047922     0.22100
C2101       C  0.88701050  0.46458710  0.60708212    -0.34200
C2102       C  0.87776647  0.45537829  0.60222176     0.16200
O2103       O  0.86004876  0.44176270  0.60311427    -0.26200
C2104       C  0.86555438  0.44162114  0.59103632     0.06000
C2105       C  0.87659447  0.44987938  0.58995321    -0.31100
O2106       O  0.89312541  0.47665502  0.62699196    -0.22900
C2107       C  0.88810068  0.47663269  0.63923756    -0.02900
C2108       C  0.87724496  0.46813111  0.64070181    -0.17300
H2109       H  0.85848057  0.44949839  0.62959791     0.20700
H2110       H  0.89481502  0.46868911  0.60088137     0.19100
H2111       H  0.88280999  0.45166050  0.58132415     0.19000
H2112       H  0.87129280  0.46634742  0.64951366     0.14900
C2113       C  0.99529107  0.74115944  0.13045622     0.30300
C2114       C  0.99065289  0.75438810  0.13060855    -0.36000
C2115       C  0.00036111  0.76436376  0.12921502     0.16300
C2116       C  0.01369805  0.76154143  0.12758844     0.22100
C2117       C  0.01837237  0.74831523  0.12770987    -0.34200
C2118       C  0.00868144  0.73834136  0.12931332     0.16200
O2119       O  0.98789200  0.73027858  0.13093832    -0.26200
C2120       C  0.99667976  0.72035103  0.13034978     0.06000
C2121       C  0.00977361  0.72477577  0.12944936    -0.31100
O2122       O  0.02095797  0.77241072  0.12594374    -0.22900
C2123       C  0.01217166  0.78233760  0.12672349    -0.02900
C2124       C  0.99921461  0.77791347  0.12880526    -0.17300
H2125       H  0.98019277  0.75673339  0.13155406     0.20700
H2126       H  0.02880233  0.74595962  0.12648463     0.19100
H2127       H  0.01871719  0.71885020  0.12840958     0.19000
H2128       H  0.99023873  0.78381587  0.12966399     0.14900
C2129       C  0.89957856  0.98805936  0.26636111     0.30300
C2130       C  0.89819177  0.98249307  0.27914321    -0.36000
C2131       C  0.89898195  0.99149018  0.28983273     0.16300
C2132       C  0.90108622  0.00499459  0.28804803     0.22100
C2133       C  0.90215597  0.01058609  0.27528776    -0.34200
C2134       C  0.90126171  0.00162877  0.26462633     0.16200
O2135       O  0.89997408  0.98146094  0.25498674    -0.26200
C2136       C  0.90172581  0.99098392  0.24588929     0.06000
C2137       C  0.90249819  0.00371663  0.25130344    -0.31100
O2138       O  0.90242991  0.01144043  0.29939922    -0.22900
C2139       C  0.90102718  0.00199218  0.30860813    -0.02900
C2140       C  0.89876029  0.98938271  0.30325550    -0.17300
H2141       H  0.89694724  0.97186829  0.28066127     0.20700
H2142       H  0.90391302  0.02114020  0.27378743     0.19100
H2143       H  0.90426770  0.01307615  0.24619996     0.19000
H2144       H  0.89766300  0.97998193  0.30846956     0.14900
C2145       C  0.97452921  0.89851913  0.15427076     0.30300
C2146       C  0.96522674  0.90184120  0.16418332    -0.36000
C2147       C  0.95974225  0.91471230  0.16338689     0.16300
C2148       C  0.96305190  0.92361828  0.15341651     0.22100
C2149       C  0.97242413  0.92034653  0.14358125    -0.34200
C2150       C  0.97803609  0.90755743  0.14448915     0.16200
O2151       O  0.98082615  0.88701549  0.15303638    -0.26200
C2152       C  0.98857335  0.88877425  0.14241302     0.06000
C2153       C  0.98728822  0.90138867  0.13672836    -0.31100
O2154       O  0.95662019  0.93503552  0.15447449    -0.22900
C2155       C  0.94919128  0.93350518  0.16534924    -0.02900
C2156       C  0.95073338  0.92106208  0.17133715    -0.17300
H2157       H  0.96248082  0.89489339  0.17197602     0.20700
H2158       H  0.97517218  0.92729942  0.13579046     0.19100
H2159       H  0.99227974  0.90535161  0.12802275     0.19000
H2160       H  0.94586513  0.91723864  0.18017201     0.14900
C2161       C  0.10975911  0.98938990  0.76632258     0.30300
C2162       C  0.11282623  0.98404677  0.77892544    -0.36000
C2163       C  0.11288969  0.99313373  0.78959335     0.16300
C2164       C  0.10994484  0.00650062  0.78798896     0.22100
C2165       C  0.10704669  0.01185698  0.77539371    -0.34200
C2166       C  0.10717827  0.00283201  0.76472477     0.16200
O2167       O  0.10903411  0.98274999  0.75496709    -0.26200
C2168       C  0.10616155  0.99212728  0.74598259     0.06000
C2169       C  0.10492855  0.00479542  0.75149247    -0.31100
O2170       O  0.11005158  0.01310676  0.79935075    -0.22900
C2171       C  0.11325003  0.00390936  0.80837984    -0.02900
C2172       C  0.11521433  0.99129851  0.80287346    -0.17300
H2173       H  0.11496287  0.97354698  0.78032376     0.20700
H2174       H  0.10479395  0.02233510  0.77401469     0.19100
H2175       H  0.10255289  0.01407207  0.74648228     0.19000
H2176       H  0.11760785  0.98206827  0.80795750     0.14900
C2177       C  0.25253167  0.89372742  0.01692650     0.30300
C2178       C  0.26536167  0.89394102  0.01141454    -0.36000
C2179       C  0.27584714  0.89571538  0.02045972     0.16300
C2180       C  0.27384275  0.89739251  0.03396632     0.22100
C2181       C  0.26102775  0.89691861  0.03951163    -0.34200
C2182       C  0.25055184  0.89493350  0.03048733     0.16200
O2183       O  0.24127936  0.89265187  0.01026120    -0.26200
C2184       C  0.23197723  0.89294089  0.01969252     0.06000
C2185       C  0.23715973  0.89427027  0.03248169    -0.31100
O2186       O  0.28502239  0.89959065  0.04048504    -0.22900
C2187       C  0.29431759  0.89910229  0.03105366    -0.02900
C2188       C  0.28920526  0.89663374  0.01841364    -0.17300
H2189       H  0.26703593  0.89296167  0.00080862     0.20700
H2190       H  0.25933367  0.89817342  0.05008484     0.19100
H2191       H  0.23181587  0.89507851  0.04181047     0.19000
H2192       H  0.29452055  0.89601109  0.00905365     0.14900
C2193       C  0.15171101  0.94492078  0.94138176     0.30300
C2194       C  0.15325092  0.94882375  0.92797138    -0.36000
C2195       C  0.14476892  0.95909173  0.92350139     0.16300
C2196       C  0.13559307  0.96517326  0.93174078     0.22100
C2197       C  0.13405929  0.96127990  0.94505751    -0.34200
C2198       C  0.14233546  0.95093378  0.94943360     0.16200
O2199       O  0.15830453  0.93536114  0.94767153    -0.26200
C2200       C  0.15290267  0.93521437  0.95981688     0.06000
C2201       C  0.14293112  0.94467842  0.96142899    -0.31100
O2202       O  0.12853095  0.97436669  0.92557805    -0.22900
C2203       C  0.13309931  0.97419163  0.91314918    -0.02900
C2204       C  0.14324163  0.96488027  0.91123543    -0.17300
H2205       H  0.16039004  0.94406460  0.92144570     0.20700
H2206       H  0.12673666  0.96585632  0.95150919     0.19100
H2207       H  0.13698667  0.94668085  0.97019747     0.19000
H2208       H  0.14858960  0.96263166  0.90214730     0.14900
C2209       C  0.09708406  0.86281987  0.07878736     0.30300
C2210       C  0.11030912  0.86036573  0.07487559    -0.36000
C2211       C  0.11561852  0.86916459  0.06530824     0.16300
C2212       C  0.10834981  0.87953752  0.05990100     0.22100
C2213       C  0.09526643  0.88211248  0.06396198    -0.34200
C2214       C  0.09004124  0.87345176  0.07359447     0.16200
O2215       O  0.08991823  0.85565410  0.08723353    -0.26200
C2216       C  0.07823514  0.86194892  0.08754137     0.06000
C2217       C  0.07780616  0.87311688  0.07932067    -0.31100
O2218       O  0.11500862  0.88624045  0.05077853    -0.22900
C2219       C  0.12679297  0.88022209  0.05037469    -0.02900
C2220       C  0.12778922  0.86954653  0.05924829    -0.17300
H2221       H  0.11599419  0.85210925  0.07888148     0.20700
H2222       H  0.08950553  0.89023665  0.05979402     0.19100
H2223       H  0.06952668  0.87979252  0.07752330     0.19000
H2224       H  0.13613954  0.86290240  0.06080109     0.14900
C2225       C  0.74514555  0.09972477  0.01616433     0.30300
C2226       C  0.75800457  0.09946646  0.01075646    -0.36000
C2227       C  0.76846173  0.09880515  0.01997086     0.16300
C2228       C  0.76643551  0.09832012  0.03357093     0.22100
C2229       C  0.75356919  0.09884556  0.03899600    -0.34200
C2230       C  0.74309746  0.09962067  0.02977136     0.16200
O2231       O  0.73393158  0.09965682  0.00936047    -0.26200
C2232       C  0.72456349  0.09967902  0.01872086     0.06000
C2233       C  0.72966989  0.09976479  0.03161537    -0.31100
O2234       O  0.77765452  0.09714544  0.04030124    -0.22900
C2235       C  0.78697137  0.09703995  0.03087507    -0.02900
C2236       C  0.78183162  0.09808991  0.01804664    -0.17300
H2237       H  0.75972451  0.09952789  0.00011206     0.20700
H2238       H  0.75183779  0.09845073  0.04963164     0.19100
H2239       H  0.72428008  0.09945514  0.04094819     0.19000
H2240       H  0.78715056  0.09805211  0.00866867     0.14900
C2241       C  0.86823443  0.04466224  0.11005857     0.30300
C2242       C  0.86693961  0.04171898  0.12370542    -0.36000
C2243       C  0.87586842  0.03220536  0.12881365     0.16300
C2244       C  0.88523813  0.02591301  0.12095612     0.22100
C2245       C  0.88654048  0.02885608  0.10737932    -0.34200
C2246       C  0.87780144  0.03848911  0.10235117     0.16200
O2247       O  0.86124891  0.05350415  0.10323365    -0.26200
C2248       C  0.86656618  0.05304924  0.09108402     0.06000
C2249       C  0.87689483  0.04389943  0.08997393    -0.31100
O2250       O  0.89271900  0.01754673  0.12772899    -0.22900
C2251       C  0.88821977  0.01852514  0.14013962    -0.02900
C2252       C  0.87771309  0.02749322  0.14145956    -0.17300
H2253       H  0.85966633  0.04666587  0.12993464     0.20700
H2254       H  0.89403148  0.02414558  0.10122269     0.19100
H2255       H  0.88290248  0.04161534  0.08131612     0.19000
H2256       H  0.87233926  0.03021531  0.15040151     0.14900
C2257       C  0.99360084  0.23182245  0.91985354     0.30300
C2258       C  0.98776183  0.24456087  0.91971988    -0.36000
C2259       C  0.99648240  0.25537863  0.92134569     0.16300
C2260       C  0.01000858  0.25379917  0.92309214     0.22100
C2261       C  0.01588370  0.24107162  0.92292678    -0.34200
C2262       C  0.00717517  0.23025412  0.92119476     0.16200
O2263       O  0.98724664  0.22030220  0.91930585    -0.26200
C2264       C  0.99689726  0.21122827  0.92011674     0.06000
C2265       C  0.00950644  0.21685190  0.92120612    -0.31100
O2266       O  0.01616648  0.26524620  0.92524342    -0.22900
C2267       C  0.00646849  0.27429395  0.92472581    -0.02900
C2268       C  0.99403225  0.26871865  0.92223694    -0.17300
H2269       H  0.97712813  0.24592785  0.91874929     0.20700
H2270       H  0.02646042  0.23967679  0.92436323     0.19100
H2271       H  0.01894439  0.21179540  0.92243053     0.19000
H2272       H  0.98450873  0.27372189  0.92160937     0.14900
C2273       C  0.92759908  0.11803975  0.97628123     0.30300
C2274       C  0.92410134  0.10840202  0.98577265    -0.36000
C2275       C  0.91094508  0.10882574  0.99029676     0.16300
C2276       C  0.90176127  0.11799674  0.98572185     0.22100
C2277       C  0.90529479  0.12773173  0.97625379    -0.34200
C2278       C  0.91855545  0.12741623  0.97182910     0.16200
O2279       O  0.93936313  0.11935496  0.97068789    -0.26200
C2280       C  0.93794778  0.12979952  0.96262813     0.06000
C2281       C  0.92522447  0.13529569  0.96294962    -0.31100
O2282       O  0.89001977  0.11655470  0.99145084    -0.22900
C2283       C  0.89180972  0.10640704  0.99985723    -0.02900
C2284       C  0.90462727  0.10122005  0.99954131    -0.17300
H2285       H  0.93117423  0.10111760  0.98942727     0.20700
H2286       H  0.89824707  0.13507449  0.97267262     0.19100
H2287       H  0.92141267  0.14368263  0.95730928     0.19000
H2288       H  0.90873069  0.09309093  0.00535081     0.14900
C2289       C  0.06181484  0.07961894  0.89357756     0.30300
C2290       C  0.05743283  0.09287902  0.89209174    -0.36000
C2291       C  0.04761878  0.09716889  0.90111913     0.16300
C2292       C  0.04235862  0.08893763  0.91081783     0.22100
C2293       C  0.04688154  0.07577460  0.91243460    -0.34200
C2294       C  0.05679140  0.07154801  0.90353118     0.16200
O2295       O  0.07072972  0.07341249  0.88611242    -0.26200
C2296       C  0.07153307  0.06126617  0.89149650     0.06000
C2297       C  0.06312310  0.05958974  0.90238822    -0.31100
O2298       O  0.03291077  0.09481136  0.91782849    -0.22900
C2299       C  0.03219419  0.10704399  0.91267597    -0.02900
C2300       C  0.04116860  0.10910139  0.90229377    -0.17300
H2301       H  0.06132040  0.09935838  0.88438832     0.20700
H2302       H  0.04288071  0.06924688  0.92003911     0.19100
H2303       H  0.06171427  0.05075321  0.90844051     0.19000
H2304       H  0.04249883  0.11797414  0.89627774     0.14900
loop_ 
_geom_bond_atom_site_label_1 
_geom_bond_atom_site_label_2 
_geom_bond_distance 
_geom_bond_site_symmetry_2 
_ccdc_geom_bond_type 
N1            N2   1.321       .  A
N1            C5   1.347       .  A
N1           Cu9   2.081       .  S
N2            C3   1.347       .  A
N2           Cu8   2.076   1_455  S
C3            C4   1.384       .  A
C3            H6   1.082       .  S
C4            C5   1.385       .  A
C4         C2299   1.476       .  S
C5            H7   1.082       .  S
Cu8          N11   2.076       .  S
Cu9          N19   2.082   1_455  S
Cu10         N12   2.083       .  S
Cu10         N18   2.083       .  S
N11          N12   1.324       .  A
N11          C15   1.343       .  A
N12          C13   1.349       .  A
C13          C14   1.385       .  A
C13          H16   1.082       .  S
C14          C15   1.380       .  A
C14        C2280   1.470       .  S
C15          H17   1.082       .  S
N18          N19   1.324       .  A
N18          C22   1.347       .  A
N19          C20   1.346   1_655  A
C20          C21   1.384   1_455  A
C20          H23   1.082       .  S
C21          C22   1.384       .  A
C21        C2264   1.475       .  S
C22          H24   1.082       .  S
N25          N26   1.322       .  A
N25          C29   1.348       .  A
N25         Cu33   2.079       .  S
N26          C27   1.342       .  A
N26         Cu32   2.065       .  S
C27          C28   1.381       .  A
C27          H30   1.082       .  S
C28          C29   1.383       .  A
C28        C2248   1.469       .  S
C29          H31   1.082       .  S
Cu32         N35   2.065       .  S
Cu33         N43   2.080       .  S
Cu34         N36   2.072       .  S
Cu34         N42   2.073       .  S
N35          N36   1.321       .  A
N35          C39   1.342       .  A
N36          C37   1.347       .  A
C37          C38   1.384       .  A
C37          H40   1.082       .  S
C38          C39   1.382       .  A
C38        C2283   1.470   1_554  S
C39          H41   1.082       .  S
N42          N43   1.324       .  A
N42          C46   1.344       .  A
N43          C44   1.347       .  A
C44          C45   1.383       .  A
C44          H47   1.082       .  S
C45          C46   1.381       .  A
C45        C2235   1.470       .  S
C46          H48   1.082       .  S
N49          N50   1.322       .  A
N49          C53   1.349       .  A
N49         Cu57   2.078       .  S
N50          C51   1.344       .  A
N50         Cu56   2.078   1_556  S
C51          C52   1.384       .  A
C51          H54   1.082       .  S
C52          C53   1.384       .  A
C52        C2200   1.474       .  S
C53          H55   1.082       .  S
Cu56         N59   2.078       .  S
Cu57         N67   2.079   1_556  S
Cu58         N60   2.081       .  S
Cu58         N66   2.083       .  S
N59          N60   1.322       .  A
N59          C63   1.345       .  A
N60          C61   1.349       .  A
C61          C62   1.386       .  A
C61          H64   1.082       .  S
C62          C63   1.382       .  A
C62        C2219   1.474       .  S
C63          H65   1.082       .  S
N66          N67   1.324       .  A
N66          C70   1.347       .  A
N67          C68   1.345       .  A
C68          C69   1.381       .  A
C68          H71   1.082   1_554  S
C69          C70   1.384       .  A
C69        C2184   1.471       .  S
C70          H72   1.082       .  S
N73          N74   1.322       .  A
N73          C77   1.349       .  A
N73         Cu81   2.080       .  S
N74          C75   1.344       .  A
N74         Cu80   2.078   1_565  S
C75          C76   1.382       .  A
C75          H78   1.082       .  S
C76          C77   1.386       .  A
C76        C2203   1.474       .  S
C77          H79   1.082       .  S
Cu80         N83   2.078       .  S
Cu81         N91   2.081   1_565  S
Cu82         N84   2.089       .  S
Cu82         N90   2.089       .  S
N83          N84   1.322       .  A
N83          C87   1.345       .  A
N84          C85   1.350       .  A
C85          C86   1.387       .  A
C85          H88   1.082       .  S
C86          C87   1.384       .  A
C86        C2296   1.477       .  S
C87          H89   1.082       .  S
N90          N91   1.324       .  A
N90          C94   1.346       .  A
N91          C92   1.347   1_545  A
C92          C93   1.384   1_565  A
C92          H95   1.082       .  S
C93          C94   1.383       .  A
C93        C2171   1.475       .  S
C94          H96   1.082       .  S
N97          N98   1.322       .  A
N97         C101   1.348       .  A
N97        Cu105   2.085       .  S
N98          C99   1.343       .  A
N98        Cu104   2.062       .  S
C99         C100   1.379       .  A
C99         H102   1.082       .  S
C100        C101   1.387       .  A
C100       C2155   1.471       .  S
C101        H103   1.082       .  S
Cu104       N107   2.062       .  S
Cu105       N115   2.086       .  S
Cu106       N108   2.070   1_565  S
Cu106       N114   2.071       .  S
N107        N108   1.320   1_565  A
N107        C111   1.341   1_565  A
N108        C109   1.348       .  A
C109        C110   1.385       .  A
C109        H112   1.082       .  S
C110        C111   1.379       .  A
C110       C2251   1.468       .  S
C111        H113   1.082   1_545  S
N114        N115   1.325       .  A
N114        C118   1.343       .  A
N115        C116   1.347       .  A
C116        C117   1.382       .  A
C116        H119   1.082       .  S
C117        C118   1.380       .  A
C117       C2136   1.468       .  S
C118        H120   1.082   1_565  S
N121        N122   1.321       .  A
N121        C125   1.348   1_455  A
N121       Cu129   2.083       .  S
N122        C123   1.345       .  A
N122       Cu128   2.070       .  S
C123        C124   1.383   1_455  A
C123        H126   1.082       .  S
C124        C125   1.385       .  A
C124       C2152   1.473       .  S
C125        H127   1.082       .  S
Cu128       N131   2.071       .  S
Cu129       N139   2.084       .  S
Cu130       N132   2.088       .  S
Cu130       N138   2.089       .  S
N131        N132   1.323       .  A
N131        C135   1.343       .  A
N132        C133   1.350       .  A
C133        C134   1.386       .  A
C133        H136   1.082       .  S
C134        C135   1.382       .  A
C134       C2216   1.474       .  S
C135        H137   1.082       .  S
N138        N139   1.324       .  A
N138        C142   1.348       .  A
N139        C140   1.346       .  A
C140        C141   1.384       .  A
C140        H143   1.082   1_455  S
C141        C142   1.384       .  A
C141       C2123   1.476       .  S
C142        H144   1.082       .  S
N145        N146   1.320       .  A
N145        C149   1.345       .  A
N145       Cu153   2.064       .  S
N146        C147   1.343       .  A
N146       Cu152   2.065       .  S
C147        C148   1.382       .  A
C147        H150   1.082       .  S
C148        C149   1.383       .  A
C148       C2107   1.467       .  S
C149        H151   1.082       .  S
Cu152       N155   2.066       .  S
Cu153       N163   2.065       .  S
Cu154       N156   2.098       .  S
Cu154       N162   2.098       .  S
N155        N156   1.323       .  A
N155        C159   1.342       .  A
N156        C157   1.351       .  A
C157        C158   1.389       .  A
C157        H160   1.082       .  S
C158        C159   1.378       .  A
C158       C2088   1.474       .  S
C159        H161   1.082       .  S
N162        N163   1.324       .  A
N162        C166   1.350       .  A
N163        C164   1.342       .  A
C164        C165   1.378       .  A
C164        H167   1.082       .  S
C165        C166   1.386       .  A
C165       C2072   1.471       .  S
C166        H168   1.082       .  S
N169        N170   1.322       .  A
N169        C173   1.350       .  A
N169       Cu177   2.087       .  S
N170        C171   1.343       .  A
N170       Cu176   2.073       .  S
C171        C172   1.383       .  A
C171        H174   1.082       .  S
C172        C173   1.386       .  A
C172       C2040   1.476       .  S
C173        H175   1.082       .  S
Cu176       N179   2.072       .  S
Cu177       N187   2.088       .  S
Cu178       N180   2.078       .  S
Cu178       N186   2.080       .  S
N179        N180   1.321       .  A
N179        C183   1.343       .  A
N180        C181   1.349       .  A
C181        C182   1.386       .  A
C181        H184   1.082       .  S
C182        C183   1.383       .  A
C182       C2059   1.474       .  S
C183        H185   1.082       .  S
N186        N187   1.325       .  A
N186        C190   1.345       .  A
N187        C188   1.348       .  A
C188        C189   1.384       .  A
C188        H191   1.082       .  S
C189        C190   1.382       .  A
C189       C2024   1.473       .  S
C190        H192   1.082       .  S
N193        N194   1.323       .  A
N193        C197   1.349       .  A
N193       Cu201   2.081       .  S
N194        C195   1.343       .  A
N194       Cu200   2.076       .  S
C195        C196   1.380       .  A
C195        H198   1.082       .  S
C196        C197   1.385       .  A
C196       C2008   1.471       .  S
C197        H199   1.082       .  S
Cu200       N203   2.076       .  S
Cu201       N211   2.081       .  S
Cu202       N204   2.079       .  S
Cu202       N210   2.080       .  S
N203        N204   1.322       .  A
N203        C207   1.347       .  A
N204        C205   1.346   1_455  A
C205        C206   1.383       .  A
C205        H208   1.082       .  S
C206        C207   1.384   1_655  A
C206       C2091   1.473       .  S
C207        H209   1.082       .  S
N210        N211   1.323       .  A
N210        C214   1.347       .  A
N211        C212   1.346       .  A
C212        C213   1.384       .  A
C212        H215   1.082       .  S
C213        C214   1.383       .  A
C213       C1995   1.473       .  S
C214        H216   1.082   1_455  S
N217        N218   1.322       .  A
N217        C221   1.349       .  A
N217       Cu225   2.081       .  S
N218        C219   1.342       .  A
N218       Cu224   2.071       .  S
C219        C220   1.383       .  A
C219        H222   1.082       .  S
C220        C221   1.385       .  A
C220       C2011   1.474       .  S
C221        H223   1.082       .  S
Cu224       N227   2.071       .  S
Cu225       N235   2.083       .  S
Cu226       N228   2.088       .  S
Cu226       N234   2.089       .  S
N227        N228   1.322       .  A
N227        C231   1.344       .  A
N228        C229   1.349       .  A
C229        C230   1.387       .  A
C229        H232   1.082       .  S
C230        C231   1.381       .  A
C230       C2056   1.474       .  S
C231        H233   1.082       .  S
N234        N235   1.324       .  A
N234        C238   1.347       .  A
N235        C236   1.347       .  A
C236        C237   1.382       .  A
C236        H239   1.082       .  S
C237        C238   1.385       .  A
C237       C1979   1.475       .  S
C238        H240   1.082       .  S
N241        N242   1.322       .  A
N241        C245   1.352       .  A
N241       Cu249   2.095       .  S
N242        C243   1.342       .  A
N242       Cu248   2.068   1_455  S
C243        C244   1.379       .  A
C243        H246   1.082       .  S
C244        C245   1.389       .  A
C244       C2043   1.475       .  S
C245        H247   1.082       .  S
Cu248       N251   2.068       .  S
Cu249       N259   2.096   1_455  S
Cu250       N252   2.075       .  S
Cu250       N258   2.076       .  S
N251        N252   1.321       .  A
N251        C255   1.344       .  A
N252        C253   1.347       .  A
C253        C254   1.383       .  A
C253        H256   1.082       .  S
C254        C255   1.382       .  A
C254       C1960   1.470       .  S
C255        H257   1.082       .  S
N258        N259   1.325       .  A
N258        C262   1.346       .  A
N259        C260   1.347   1_655  A
C260        C261   1.384   1_455  A
C260        H263   1.082       .  S
C261        C262   1.382       .  A
C261       C1944   1.473       .  S
C262        H264   1.082       .  S
N265        N266   1.321       .  A
N265        C269   1.350       .  A
N265       Cu273   2.083       .  S
N266        C267   1.339       .  A
N266       Cu272   2.058       .  S
C267        C268   1.379       .  A
C267        H270   1.082       .  S
C268        C269   1.386       .  A
C268       C2104   1.470       .  S
C269        H271   1.082       .  S
Cu272       N275   2.058       .  S
Cu273       N283   2.084       .  S
Cu274       N276   2.084       .  S
Cu274       N282   2.085       .  S
N275        N276   1.321       .  A
N275        C279   1.343       .  A
N276        C277   1.348       .  A
C277        C278   1.386       .  A
C277        H280   1.082       .  S
C278        C279   1.379       .  A
C278       C1963   1.470       .  S
C279        H281   1.082       .  S
N282        N283   1.325       .  A
N282        C286   1.347       .  A
N283        C284   1.346       .  A
C284        C285   1.383       .  A
C284        H287   1.082       .  S
C285        C286   1.383       .  A
C285       C1928   1.474       .  S
C286        H288   1.082       .  S
N289        N290   1.323       .  A
N289        C293   1.351       .  A
N289       Cu297   2.098       .  S
N290        C291   1.345       .  A
N290       Cu296   2.076       .  S
C291        C292   1.381       .  A
C291        H294   1.082       .  S
C292        C293   1.388       .  A
C292       C1899   1.478       .  S
C293        H295   1.082       .  S
Cu296       N299   2.076   1_455  S
Cu297       N307   2.098       .  S
Cu298       N300   2.073       .  S
Cu298       N306   2.074   1_655  S
N299        N300   1.321       .  A
N299        C303   1.344       .  A
N300        C301   1.348       .  A
C301        C302   1.384       .  A
C301        H304   1.081       .  S
C302        C303   1.384       .  A
C302       C1912   1.473       .  S
C303        H305   1.082       .  S
N306        N307   1.324       .  A
N306        C310   1.344       .  A
N307        C308   1.350       .  A
C308        C309   1.387       .  A
C308        H311   1.082       .  S
C309        C310   1.382       .  A
C309       C2267   1.476       .  S
C310        H312   1.082   1_455  S
N313        N314   1.321       .  A
N313        C317   1.347       .  A
N313       Cu321   2.075       .  S
N314        C315   1.345       .  A
N314       Cu320   2.072       .  S
C315        C316   1.383       .  A
C315        H318   1.082       .  S
C316        C317   1.386       .  A
C316       C1880   1.473       .  S
C317        H319   1.082       .  S
Cu320       N323   2.073       .  S
Cu321       N331   2.076       .  S
Cu322       N324   2.086       .  S
Cu322       N330   2.087       .  S
N323        N324   1.323       .  A
N323        C327   1.341       .  A
N324        C325   1.351       .  A
C325        C326   1.387       .  A
C325        H328   1.082       .  S
C326        C327   1.380       .  A
C326       C1915   1.473       .  S
C327        H329   1.082       .  S
N330        N331   1.324       .  A
N330        C334   1.348       .  A
N331        C332   1.344       .  A
C332        C333   1.382       .  A
C332        H335   1.082       .  S
C333        C334   1.384       .  A
C333       C2075   1.472       .  S
C334        H336   1.082       .  S
N337        N338   1.321       .  A
N337        C341   1.348       .  A
N337       Cu345   2.081       .  S
N338        C339   1.345       .  A
N338       Cu344   2.071   1_455  S
C339        C340   1.382       .  A
C339        H342   1.082       .  S
C340        C341   1.387       .  A
C340       C1864   1.475       .  S
C341        H343   1.082       .  S
Cu344       N347   2.071       .  S
Cu345       N355   2.082   1_455  S
Cu346       N348   2.095       .  S
Cu346       N354   2.095       .  S
N347        N348   1.323       .  A
N347        C351   1.342       .  A
N348        C349   1.352       .  A
C349        C350   1.389       .  A
C349        H352   1.082       .  S
C350        C351   1.382       .  A
C350       C1851   1.478       .  S
C351        H353   1.081       .  S
N354        N355   1.325       .  A
N354        C358   1.349       .  A
N355        C356   1.346   1_655  A
C356        C357   1.382   1_455  A
C356        H359   1.082       .  S
C357        C358   1.384       .  A
C357       C2120   1.474       .  S
C358        H360   1.082       .  S
N361        N362   1.323       .  A
N361        C365   1.348       .  A
N361       Cu369   2.085       .  S
N362        C363   1.346       .  A
N362       Cu368   2.082       .  S
C363        C364   1.383       .  A
C363        H366   1.082       .  S
C364        C365   1.385       .  A
C364       C1848   1.475       .  S
C365        H367   1.082       .  S
Cu368       N371   2.081   1_554  S
Cu369       N379   2.085       .  S
Cu370       N372   2.073       .  S
Cu370       N378   2.073       .  S
N371        N372   1.322       .  A
N371        C375   1.346       .  A
N372        C373   1.346       .  A
C373        C374   1.382       .  A
C373        H376   1.082       .  S
C374        C375   1.385       .  A
C374       C1883   1.472       .  S
C375        H377   1.082       .  S
N378        N379   1.323   1_556  A
N378        C382   1.344       .  A
N379        C380   1.348       .  A
C380        C381   1.385       .  A
C380        H383   1.082       .  S
C381        C382   1.382   1_554  A
C381       C1832   1.473       .  S
C382        H384   1.082       .  S
N385        N386   1.323       .  A
N385        C389   1.350       .  A
N385       Cu393   2.084       .  S
N386        C387   1.344       .  A
N386       Cu392   2.079       .  S
C387        C388   1.383       .  A
C387        H390   1.082       .  S
C388        C389   1.385       .  A
C388       C1896   1.475   1_554  S
C389        H391   1.082   1_554  S
Cu392       N395   2.079       .  S
Cu393       N403   2.084       .  S
Cu394       N396   2.080       .  S
Cu394       N402   2.080       .  S
N395        N396   1.321       .  A
N395        C399   1.344       .  A
N396        C397   1.350       .  A
C397        C398   1.387       .  A
C397        H400   1.082       .  S
C398        C399   1.383       .  A
C398       C1816   1.476       .  S
C399        H401   1.082       .  S
N402        N403   1.325       .  A
N402        C406   1.344       .  A
N403        C404   1.348       .  A
C404        C405   1.384       .  A
C404        H407   1.082       .  S
C405        C406   1.380       .  A
C405       C1800   1.470       .  S
C406        H408   1.082       .  S
N409        N410   1.323       .  A
N409        C413   1.350       .  A
N409       Cu417   2.090       .  S
N410        C411   1.344       .  A
N410       Cu416   2.073       .  S
C411        C412   1.382       .  A
C411        H414   1.082       .  S
C412        C413   1.387       .  A
C412       C1867   1.476       .  S
C413        H415   1.082       .  S
Cu416       N419   2.073       .  S
Cu417       N427   2.091       .  S
Cu418       N420   2.082       .  S
Cu418       N426   2.083       .  S
N419        N420   1.321       .  A
N419        C423   1.344       .  A
N420        C421   1.350       .  A
C421        C422   1.386       .  A
C421        H424   1.082       .  S
C422        C423   1.384       .  A
C422       C1819   1.477       .  S
C423        H425   1.082       .  S
N426        N427   1.325       .  A
N426        C430   1.345       .  A
N427        C428   1.348       .  A
C428        C429   1.384       .  A
C428        H431   1.082       .  S
C429        C430   1.382       .  A
C429       C2027   1.474       .  S
C430        H432   1.082       .  S
N433        N434   1.321       .  A
N433        C437   1.348       .  A
N433       Cu441   2.083       .  S
N434        C435   1.341       .  A
N434       Cu440   2.053       .  S
C435        C436   1.378       .  A
C435        H438   1.082       .  S
C436        C437   1.387       .  A
C436       C1784   1.469       .  S
C437        H439   1.082       .  S
Cu440       N443   2.053       .  S
Cu441       N451   2.085       .  S
Cu442       N444   2.083       .  S
Cu442       N450   2.084       .  S
N443        N444   1.322       .  A
N443        C447   1.341       .  A
N444        C445   1.347       .  A
C445        C446   1.384       .  A
C445        H448   1.082       .  S
C446        C447   1.379       .  A
C446       C1768   1.467       .  S
C447        H449   1.082       .  S
N450        N451   1.324       .  A
N450        C454   1.348       .  A
N451        C452   1.345       .  A
C452        C453   1.383       .  A
C452        H455   1.082       .  S
C453        C454   1.383       .  A
C453       C1752   1.472       .  S
C454        H456   1.082       .  S
N457        N458   1.322       .  A
N457        C461   1.346       .  A
N457       Cu465   2.080       .  S
N458        C459   1.343       .  A
N458       Cu464   2.060   1_556  S
C459        C460   1.380       .  A
C459        H462   1.081       .  S
C460        C461   1.383       .  A
C460       C1787   1.467       .  S
C461        H463   1.081       .  S
Cu464       N467   2.059       .  S
Cu465       N475   2.080   1_556  S
Cu466       N468   2.067       .  S
Cu466       N474   2.068       .  S
N467        N468   1.321       .  A
N467        C471   1.343       .  A
N468        C469   1.344       .  A
C469        C470   1.382       .  A
C469        H472   1.082       .  S
C470        C471   1.379       .  A
C470       C1739   1.463       .  S
C471        H473   1.082       .  S
N474        N475   1.323       .  A
N474        C478   1.343       .  A
N475        C476   1.347       .  A
C476        C477   1.383       .  A
C476        H479   1.082   1_554  S
C477        C478   1.382       .  A
C477       C1803   1.470       .  S
C478        H480   1.082       .  S
N481        N482   1.320       .  A
N481        C485   1.348       .  A
N481       Cu489   2.074       .  S
N482        C483   1.340       .  A
N482       Cu488   2.055       .  S
C483        C484   1.378       .  A
C483        H486   1.082       .  S
C484        C485   1.386       .  A
C484       C1771   1.466       .  S
C485        H487   1.082       .  S
Cu488       N491   2.056       .  S
Cu489       N499   2.076       .  S
Cu490       N492   2.096       .  S
Cu490       N498   2.097       .  S
N491        N492   1.321       .  A
N491        C495   1.342       .  A
N492        C493   1.351       .  A
C493        C494   1.389       .  A
C493        H496   1.082       .  S
C494        C495   1.380       .  A
C494       C1723   1.474       .  S
C495        H497   1.082       .  S
N498        N499   1.325       .  A
N498        C502   1.349       .  A
N499        C500   1.344       .  A
C500        C501   1.380       .  A
C500        H503   1.082       .  S
C501        C502   1.385       .  A
C501       C1707   1.473       .  S
C502        H504   1.082       .  S
N505        N506   1.321       .  A
N505        C509   1.345       .  A
N505       Cu513   2.069       .  S
N506        C507   1.343       .  A
N506       Cu512   2.061       .  S
C507        C508   1.381       .  A
C507        H510   1.082       .  S
C508        C509   1.382       .  A
C508       C1736   1.465       .  S
C509        H511   1.082       .  S
Cu512       N515   2.062       .  S
Cu513       N523   2.071       .  S
Cu514       N516   2.092       .  S
Cu514       N522   2.093       .  S
N515        N516   1.322       .  A
N515        C519   1.342       .  A
N516        C517   1.350       .  A
C517        C518   1.387       .  A
C517        H520   1.082       .  S
C518        C519   1.380       .  A
C518       C1691   1.472       .  S
C519        H521   1.082       .  S
N522        N523   1.324       .  A
N522        C526   1.347       .  A
N523        C524   1.346       .  A
C524        C525   1.382       .  A
C524        H527   1.082       .  S
C525        C526   1.384       .  A
C525       C1672   1.474       .  S
C526        H528   1.082       .  S
N529        N530   1.324       .  A
N529        C533   1.348       .  A
N529       Cu537   2.084       .  S
N530        C531   1.346       .  A
N530       Cu536   2.082       .  S
C531        C532   1.382       .  A
C531        H534   1.082       .  S
C532        C533   1.385       .  A
C532       C1659   1.474       .  S
C533        H535   1.082       .  S
Cu536       N539   2.082       .  S
Cu537       N547   2.084       .  S
Cu538       N540   2.079       .  S
Cu538       N546   2.079       .  S
N539        N540   1.322       .  A
N539        C543   1.348       .  A
N540        C541   1.346       .  A
C541        C542   1.385       .  A
C541        H544   1.082       .  S
C542        C543   1.385       .  A
C542       C1720   1.477       .  S
C543        H545   1.082       .  S
N546        N547   1.323       .  A
N546        C550   1.346       .  A
N547        C548   1.347       .  A
C548        C549   1.385       .  A
C548        H551   1.082       .  S
C549        C550   1.382       .  A
C549       C1835   1.473       .  S
C550        H552   1.082       .  S
N553        N554   1.322       .  A
N553        C557   1.350       .  A
N553       Cu561   2.093       .  S
N554        C555   1.344       .  A
N554       Cu560   2.068       .  S
C555        C556   1.382       .  A
C555        H558   1.082       .  S
C556        C557   1.387       .  A
C556       C1656   1.477       .  S
C557        H559   1.082       .  S
Cu560       N563   2.067       .  S
Cu561       N571   2.094       .  S
Cu562       N564   2.089       .  S
Cu562       N570   2.089       .  S
N563        N564   1.322       .  A
N563        C567   1.344       .  A
N564        C565   1.348       .  A
C565        C566   1.386       .  A
C565        H568   1.082       .  S
C566        C567   1.382       .  A
C566       C1688   1.473       .  S
C567        H569   1.082       .  S
N570        N571   1.325       .  A
N570        C574   1.347       .  A
N571        C572   1.350       .  A
C572        C573   1.384       .  A
C572        H575   1.082       .  S
C573        C574   1.383       .  A
C573       C1643   1.475       .  S
C574        H576   1.082       .  S
N577        N578   1.322       .  A
N577        C581   1.346       .  A
N577       Cu585   2.072       .  S
N578        C579   1.344       .  A
N578       Cu584   2.074       .  S
C579        C580   1.381       .  A
C579        H582   1.082       .  S
C580        C581   1.383       .  A
C580       C1627   1.469       .  S
C581        H583   1.082       .  S
Cu584       N587   2.074       .  S
Cu585       N595   2.072       .  S
Cu586       N588   2.079       .  S
Cu586       N594   2.079       .  S
N587        N588   1.322       .  A
N587        C591   1.346       .  A
N588        C589   1.346       .  A
C589        C590   1.382       .  A
C589        H592   1.082       .  S
C590        C591   1.383       .  A
C590       C1608   1.470       .  S
C591        H593   1.082       .  S
N594        N595   1.323       .  A
N594        C598   1.346       .  A
N595        C596   1.345       .  A
C596        C597   1.382       .  A
C596        H599   1.082       .  S
C597        C598   1.382       .  A
C597       C2187   1.470       .  S
C598        H600   1.082       .  S
N601        N602   1.321       .  A
N601        C605   1.347       .  A
N601       Cu609   2.078       .  S
N602        C603   1.343       .  A
N602       Cu608   2.061       .  S
C603        C604   1.380       .  A
C603        H606   1.082       .  S
C604        C605   1.386       .  A
C604       C1595   1.470       .  S
C605        H607   1.082       .  S
Cu608       N611   2.061       .  S
Cu609       N619   2.080       .  S
Cu610       N612   2.083       .  S
Cu610       N618   2.084       .  S
N611        N612   1.322       .  A
N611        C615   1.342       .  A
N612        C613   1.348       .  A
C613        C614   1.384       .  A
C613        H616   1.082       .  S
C614        C615   1.379       .  A
C614       C1624   1.467       .  S
C615        H617   1.082       .  S
N618        N619   1.324       .  A
N618        C622   1.347       .  A
N619        C620   1.346       .  A
C620        C621   1.383       .  A
C620        H623   1.082       .  S
C621        C622   1.383       .  A
C621       C1704   1.472       .  S
C622        H624   1.082       .  S
N625        N626   1.323       .  A
N625        C629   1.348       .  A
N625       Cu633   2.079       .  S
N626        C627   1.343       .  A
N626       Cu632   2.075   1_556  S
C627        C628   1.380       .  A
C627        H630   1.082       .  S
C628        C629   1.384       .  A
C628       C1563   1.468       .  S
C629        H631   1.082       .  S
Cu632       N635   2.076       .  S
Cu633       N643   2.080   1_556  S
Cu634       N636   2.077       .  S
Cu634       N642   2.077       .  S
N635        N636   1.322       .  A
N635        C639   1.345       .  A
N636        C637   1.348       .  A
C637        C638   1.383       .  A
C637        H640   1.082       .  S
C638        C639   1.384       .  A
C638       C1579   1.473       .  S
C639        H641   1.082       .  S
N642        N643   1.324       .  A
N642        C646   1.346       .  A
N643        C644   1.346       .  A
C644        C645   1.382       .  A
C644        H647   1.082   1_554  S
C645        C646   1.382       .  A
C645       C2232   1.470       .  S
C646        H648   1.082       .  S
N649        N650   1.322       .  A
N649        C653   1.349       .  A
N649       Cu657   2.088       .  S
N650        C651   1.341       .  A
N650       Cu656   2.059       .  S
C651        C652   1.379       .  A
C651        H654   1.082       .  S
C652        C653   1.386       .  A
C652       C1592   1.470       .  S
C653        H655   1.082       .  S
Cu656       N659   2.059       .  S
Cu657       N667   2.089       .  S
Cu658       N660   2.072   1_565  S
Cu658       N666   2.073       .  S
N659        N660   1.320   1_565  A
N659        C663   1.342   1_565  A
N660        C661   1.346       .  A
C661        C662   1.384       .  A
C661        H664   1.082       .  S
C662        C663   1.382       .  A
C662       C1560   1.470       .  S
C663        H665   1.082       .  S
N666        N667   1.324       .  A
N666        C670   1.344       .  A
N667        C668   1.348       .  A
C668        C669   1.385       .  A
C668        H671   1.082       .  S
C669        C670   1.379       .  A
C669       C1544   1.471       .  S
C670        H672   1.082   1_565  S
N673        N674   1.323       .  A
N673        C677   1.346       .  A
N673       Cu681   2.080       .  S
N674        C675   1.348       .  A
N674       Cu680   2.083       .  S
C675        C676   1.384       .  A
C675        H678   1.082       .  S
C676        C677   1.382       .  A
C676       C1528   1.471       .  S
C677        H679   1.082       .  S
Cu680       N683   2.084       .  S
Cu681       N691   2.080       .  S
Cu682       N684   2.081       .  S
Cu682       N690   2.081       .  S
N683        N684   1.324       .  A
N683        C687   1.348       .  A
N684        C685   1.345   1_545  A
C685        C686   1.381       .  A
C685        H688   1.082       .  S
C686        C687   1.383   1_565  A
C686       C1611   1.470       .  S
C687        H689   1.082       .  S
N690        N691   1.322       .  A
N690        C694   1.348       .  A
N691        C692   1.346       .  A
C692        C693   1.383       .  A
C692        H695   1.082       .  S
C693        C694   1.386       .  A
C693       C1515   1.476       .  S
C694        H696   1.082   1_545  S
N697        N698   1.322       .  A
N697        C701   1.348       .  A
N697       Cu705   2.080       .  S
N698        C699   1.345       .  A
N698       Cu704   2.074       .  S
C699        C700   1.383       .  A
C699        H702   1.082       .  S
C700        C701   1.384       .  A
C700       C1531   1.472       .  S
C701        H703   1.082       .  S
Cu704       N707   2.074       .  S
Cu705       N715   2.081       .  S
Cu706       N708   2.086       .  S
Cu706       N714   2.087       .  S
N707        N708   1.322       .  A
N707        C711   1.343       .  A
N708        C709   1.350       .  A
C709        C710   1.387       .  A
C709        H712   1.082       .  S
C710        C711   1.381       .  A
C710       C1576   1.473       .  S
C711        H713   1.082       .  S
N714        N715   1.325       .  A
N714        C718   1.346       .  A
N715        C716   1.347       .  A
C716        C717   1.381       .  A
C716        H719   1.082       .  S
C717        C718   1.384       .  A
C717       C1675   1.472       .  S
C718        H720   1.082       .  S
N721        N722   1.323       .  A
N721        C725   1.350       .  A
N721       Cu729   2.081       .  S
N722        C723   1.344       .  A
N722       Cu728   2.084       .  S
C723        C724   1.383       .  A
C723        H726   1.082       .  S
C724        C725   1.386       .  A
C724       C1499   1.475       .  S
C725        H727   1.082       .  S
Cu728       N731   2.084       .  S
Cu729       N739   2.082       .  S
Cu730       N732   2.078       .  S
Cu730       N738   2.079       .  S
N731        N732   1.323       .  A
N731        C735   1.347       .  A
N732        C733   1.347       .  A
C733        C734   1.384       .  A
C733        H736   1.082       .  S
C734        C735   1.384       .  A
C734       C1480   1.474       .  S
C735        H737   1.082       .  S
N738        N739   1.324       .  A
N738        C742   1.347       .  A
N739        C740   1.345       .  A
C740        C741   1.382       .  A
C740        H743   1.082       .  S
C741        C742   1.384       .  A
C741       C1467   1.473       .  S
C742        H744   1.082       .  S
N745        N746   1.321   1_545  A
N745        C749   1.349       .  A
N745       Cu753   2.084   1_545  S
N746        C747   1.343   1_565  A
N746       Cu752   2.067       .  S
C747        C748   1.382       .  A
C747        H750   1.082       .  S
C748        C749   1.386       .  A
C748       C1451   1.473       .  S
C749        H751   1.082       .  S
Cu752       N755   2.067       .  S
Cu753       N763   2.085       .  S
Cu754       N756   2.082       .  S
Cu754       N762   2.083       .  S
N755        N756   1.323       .  A
N755        C759   1.343       .  A
N756        C757   1.347       .  A
C757        C758   1.385       .  A
C757        H760   1.082       .  S
C758        C759   1.380       .  A
C758       C1435   1.470       .  S
C759        H761   1.082       .  S
N762        N763   1.324       .  A
N762        C766   1.348       .  A
N763        C764   1.345       .  A
C764        C765   1.383       .  A
C764        H767   1.082   1_565  S
C765        C766   1.383       .  A
C765       C2168   1.474       .  S
C766        H768   1.082       .  S
N769        N770   1.321   1_455  A
N769        C773   1.348       .  A
N769       Cu777   2.080       .  S
N770        C771   1.343   1_655  A
N770       Cu776   2.067       .  S
C771        C772   1.382       .  A
C771        H774   1.082   1_455  S
C772        C773   1.385       .  A
C772       C1432   1.471       .  S
C773        H775   1.082       .  S
Cu776       N779   2.068       .  S
Cu777       N787   2.082   1_455  S
Cu778       N780   2.084       .  S
Cu778       N786   2.085       .  S
N779        N780   1.321       .  A
N779        C783   1.341       .  A
N780        C781   1.351       .  A
C781        C782   1.386       .  A
C781        H784   1.082       .  S
C782        C783   1.382       .  A
C782       C1496   1.475       .  S
C783        H785   1.082       .  S
N786        N787   1.325       .  A
N786        C790   1.346       .  A
N787        C788   1.347   1_655  A
C788        C789   1.382   1_455  A
C788        H791   1.082       .  S
C789        C790   1.383       .  A
C789       C1992   1.472       .  S
C790        H792   1.082       .  S
N793        N794   1.322       .  A
N793        C797   1.346       .  A
N793       Cu801   2.074       .  S
N794        C795   1.346       .  A
N794       Cu800   2.076   1_565  S
C795        C796   1.385       .  A
C795        H798   1.082       .  S
C796        C797   1.383       .  A
C796       C1483   1.473       .  S
C797        H799   1.082       .  S
Cu800       N803   2.076       .  S
Cu801       N811   2.074   1_565  S
Cu802       N804   2.077       .  S
Cu802       N810   2.077       .  S
N803        N804   1.323       .  A
N803        C807   1.343       .  A
N804        C805   1.348       .  A
C805        C806   1.384       .  A
C805        H808   1.082       .  S
C806        C807   1.381       .  A
C806       C1416   1.470       .  S
C807        H809   1.082       .  S
N810        N811   1.323       .  A
N810        C814   1.345       .  A
N811        C812   1.346   1_545  A
C812        C813   1.383   1_565  A
C812        H815   1.082       .  S
C813        C814   1.382       .  A
C813       C2139   1.469       .  S
C814        H816   1.082       .  S
N817        N818   1.320       .  A
N817        C821   1.347       .  A
N817       Cu825   2.077       .  S
N818        C819   1.342       .  A
N818       Cu824   2.058       .  S
C819        C820   1.381       .  A
C819        H822   1.082       .  S
C820        C821   1.385       .  A
C820       C1400   1.470       .  S
C821        H823   1.082       .  S
Cu824       N827   2.058       .  S
Cu825       N835   2.079       .  S
Cu826       N828   2.085   1_455  S
Cu826       N834   2.087       .  S
N827        N828   1.321   1_455  A
N827        C831   1.339   1_455  A
N828        C829   1.351       .  A
C829        C830   1.388       .  A
C829        H832   1.082       .  S
C830        C831   1.380       .  A
C830       C1419   1.473       .  S
C831        H833   1.081   1_655  S
N834        N835   1.325       .  A
N834        C838   1.347       .  A
N835        C836   1.345       .  A
C836        C837   1.382       .  A
C836        H839   1.082       .  S
C837        C838   1.383       .  A
C837       C1947   1.472       .  S
C838        H840   1.082   1_455  S
N841        N842   1.322       .  A
N841        C845   1.348       .  A
N841       Cu849   2.079       .  S
N842        C843   1.343       .  A
N842       Cu848   2.070       .  S
C843        C844   1.380       .  A
C843        H846   1.082       .  S
C844        C845   1.385       .  A
C844       C1403   1.469       .  S
C845        H847   1.082       .  S
Cu848       N851   2.070       .  S
Cu849       N859   2.081       .  S
Cu850       N852   2.083       .  S
Cu850       N858   2.084       .  S
N851        N852   1.322       .  A
N851        C855   1.344       .  A
N852        C853   1.348       .  A
C853        C854   1.386       .  A
C853        H856   1.082       .  S
C854        C855   1.381       .  A
C854       C1448   1.472       .  S
C855        H857   1.082       .  S
N858        N859   1.324       .  A
N858        C862   1.347       .  A
N859        C860   1.346       .  A
C860        C861   1.384       .  A
C860        H863   1.082       .  S
C861        C862   1.383       .  A
C861       C1387   1.474       .  S
C862        H864   1.082       .  S
N865        N866   1.322       .  A
N865        C869   1.347       .  A
N865       Cu873   2.077       .  S
N866        C867   1.346       .  A
N866       Cu872   2.079       .  S
C867        C868   1.383       .  A
C867        H870   1.082       .  S
C868        C869   1.385       .  A
C868       C1368   1.474       .  S
C869        H871   1.082       .  S
Cu872       N875   2.079       .  S
Cu873       N883   2.078       .  S
Cu874       N876   2.090       .  S
Cu874       N882   2.089       .  S
N875        N876   1.323       .  A
N875        C879   1.345       .  A
N876        C877   1.349       .  A
C877        C878   1.386       .  A
C877        H880   1.082       .  S
C878        C879   1.385       .  A
C878       C1355   1.479       .  S
C879        H881   1.081       .  S
N882        N883   1.324       .  A
N882        C886   1.347       .  A
N883        C884   1.346       .  A
C884        C885   1.382       .  A
C884        H887   1.082       .  S
C885        C886   1.385       .  A
C885       C1931   1.473       .  S
C886        H888   1.082       .  S
N889        N890   1.320       .  A
N889        C893   1.346       .  A
N889       Cu897   2.075       .  S
N890        C891   1.344       .  A
N890       Cu896   2.060       .  S
C891        C892   1.380       .  A
C891        H894   1.082       .  S
C892        C893   1.385       .  A
C892       C1336   1.469       .  S
C893        H895   1.082       .  S
Cu896       N899   2.061       .  S
Cu897       N907   2.077       .  S
Cu898       N900   2.108       .  S
Cu898       N906   2.108       .  S
N899        N900   1.324       .  A
N899        C903   1.342       .  A
N900        C901   1.353       .  A
C901        C902   1.391       .  A
C901        H904   1.082       .  S
C902        C903   1.377       .  A
C902       C1352   1.475       .  S
C903        H905   1.082       .  S
N906        N907   1.325       .  A
N906        C910   1.352       .  A
N907        C908   1.345       .  A
C908        C909   1.380       .  A
C908        H911   1.082       .  S
C909        C910   1.389       .  A
C909       C1640   1.478       .  S
C910        H912   1.082       .  S
N913        N914   1.321       .  A
N913        C917   1.344       .  A
N913       Cu921   2.063       .  S
N914        C915   1.345       .  A
N914       Cu920   2.073       .  S
C915        C916   1.383       .  A
C915        H918   1.082       .  S
C916        C917   1.381       .  A
C916       C1339   1.467       .  S
C917        H919   1.082       .  S
Cu920       N923   2.073       .  S
Cu921       N931   2.064       .  S
Cu922       N924   2.078       .  S
Cu922       N930   2.078       .  S
N923        N924   1.323       .  A
N923        C927   1.343       .  A
N924        C925   1.348       .  A
C925        C926   1.385       .  A
C925        H928   1.082       .  S
C926        C927   1.380       .  A
C926       C1320   1.470       .  S
C927        H929   1.082       .  S
N930        N931   1.323       .  A
N930        C934   1.345       .  A
N931        C932   1.344       .  A
C932        C933   1.380       .  A
C932        H935   1.082       .  S
C933        C934   1.381       .  A
C933       C1304   1.466       .  S
C934        H936   1.082       .  S
N937        N938   1.321       .  A
N937        C941   1.348       .  A
N937       Cu945   2.084       .  S
N938        C939   1.342       .  A
N938       Cu944   2.056       .  S
C939        C940   1.378       .  A
C939        H942   1.082       .  S
C940        C941   1.387       .  A
C940       C1288   1.470       .  S
C941        H943   1.082       .  S
Cu944       N947   2.055       .  S
Cu945       N955   2.086       .  S
Cu946       N948   2.094       .  S
Cu946       N954   2.095       .  S
N947        N948   1.321       .  A
N947        C951   1.341       .  A
N948        C949   1.351       .  A
C949        C950   1.389       .  A
C949        H952   1.082       .  S
C950        C951   1.380       .  A
C950       C1323   1.475       .  S
C951        H953   1.081       .  S
N954        N955   1.325       .  A
N954        C958   1.348       .  A
N955        C956   1.348       .  A
C956        C957   1.384       .  A
C956        H959   1.082       .  S
C957        C958   1.384       .  A
C957       C1976   1.477       .  S
C958        H960   1.082       .  S
N961        N962   1.321       .  A
N961        C965   1.349       .  A
N961       Cu969   2.082       .  S
N962        C963   1.343       .  A
N962       Cu968   2.066       .  S
C963        C964   1.381       .  A
C963        H966   1.082       .  S
C964        C965   1.387       .  A
C964       C1272   1.473       .  S
C965        H967   1.082       .  S
Cu968       N971   2.066       .  S
Cu969       N979   2.083       .  S
Cu970       N972   2.089       .  S
Cu970       N978   2.090       .  S
N971        N972   1.322       .  A
N971        C975   1.341       .  A
N972        C973   1.351       .  A
C973        C974   1.387       .  A
C973        H976   1.082       .  S
C974        C975   1.380       .  A
C974       C1371   1.472       .  S
C975        H977   1.082       .  S
N978        N979   1.325       .  A
N978        C982   1.348       .  A
N979        C980   1.346       .  A
C980        C981   1.381       .  A
C980        H983   1.082       .  S
C981        C982   1.384       .  A
C981       C1259   1.473       .  S
C982        H984   1.082       .  S
N985        N986   1.322       .  A
N985        C989   1.347       .  A
N985       Cu993   2.078       .  S
N986        C987   1.344       .  A
N986       Cu992   2.071       .  S
C987        C988   1.382       .  A
C987        H990   1.082       .  S
C988        C989   1.383       .  A
C988       C1291   1.469       .  S
C989        H991   1.082       .  S
Cu992       N995   2.072       .  S
Cu993      N1003   2.079       .  S
Cu994       N996   2.081       .  S
Cu994      N1002   2.082       .  S
N995        N996   1.322       .  A
N995        C999   1.343       .  A
N996        C997   1.348       .  A
C997        C998   1.384       .  A
C997       H1000   1.082       .  S
C998        C999   1.383       .  A
C998       C1275   1.473       .  S
C999       H1001   1.082       .  S
N1002      N1003   1.323       .  A
N1002      C1006   1.346       .  A
N1003      C1004   1.347       .  A
C1004      C1005   1.384       .  A
C1004      H1007   1.082       .  S
C1005      C1006   1.383       .  A
C1005      C1755   1.475       .  S
C1006      H1008   1.082       .  S
N1009      N1010   1.323       .  A
N1009      C1013   1.350       .  A
N1009     Cu1017   2.089       .  S
N1010      C1011   1.345       .  A
N1010     Cu1016   2.080       .  S
C1011      C1012   1.382       .  A
C1011      H1014   1.082       .  S
C1012      C1013   1.387       .  A
C1012      C1227   1.475       .  S
C1013      H1015   1.082       .  S
Cu1016     N1019   2.079       .  S
Cu1017     N1027   2.089       .  S
Cu1018     N1020   2.071   1_545  S
Cu1018     N1026   2.072       .  S
N1019      N1020   1.321   1_545  A
N1019      C1023   1.345   1_545  A
N1020      C1021   1.346       .  A
C1021      C1022   1.384       .  A
C1021      H1024   1.082       .  S
C1022      C1023   1.383       .  A
C1022      C1240   1.472       .  S
C1023      H1025   1.082       .  S
N1026      N1027   1.324       .  A
N1026      C1030   1.345       .  A
N1027      C1028   1.347       .  A
C1028      C1029   1.385       .  A
C1028      H1031   1.082       .  S
C1029      C1030   1.380       .  A
C1029      C1547   1.472       .  S
C1030      H1032   1.082   1_545  S
N1033      N1034   1.321       .  A
N1033      C1037   1.349       .  A
N1033     Cu1041   2.079       .  S
N1034      C1035   1.344       .  A
N1034     Cu1040   2.071       .  S
C1035      C1036   1.384       .  A
C1035      H1038   1.082       .  S
C1036      C1037   1.386       .  A
C1036      C1224   1.475       .  S
C1037      H1039   1.082       .  S
Cu1040     N1043   2.071       .  S
Cu1041     N1051   2.080       .  S
Cu1042     N1044   2.098       .  S
Cu1042     N1050   2.098       .  S
N1043      N1044   1.323       .  A
N1043      C1047   1.344       .  A
N1044      C1045   1.351       .  A
C1045      C1046   1.388       .  A
C1045      H1048   1.082       .  S
C1046      C1047   1.379       .  A
C1046      C1211   1.474       .  S
C1047      H1049   1.082       .  S
N1050      N1051   1.325       .  A
N1050      C1054   1.350       .  A
N1051      C1052   1.345       .  A
C1052      C1053   1.380       .  A
C1052      H1055   1.082       .  S
C1053      C1054   1.387       .  A
C1053      C1256   1.475       .  S
C1054      H1056   1.082       .  S
N1057      N1058   1.321       .  A
N1057      C1061   1.348       .  A
N1057     Cu1065   2.078       .  S
N1058      C1059   1.343       .  A
N1058     Cu1064   2.065       .  S
C1059      C1060   1.381       .  A
C1059      H1062   1.082       .  S
C1060      C1061   1.384       .  A
C1060      C1195   1.470       .  S
C1061      H1063   1.082       .  S
Cu1064     N1067   2.065       .  S
Cu1065     N1075   2.080       .  S
Cu1066     N1068   2.085       .  S
Cu1066     N1074   2.085       .  S
N1067      N1068   1.321       .  A
N1067      C1071   1.342       .  A
N1068      C1069   1.350       .  A
C1069      C1070   1.387       .  A
C1069      H1072   1.082       .  S
C1070      C1071   1.382       .  A
C1070      C1243   1.474       .  S
C1071      H1073   1.081       .  S
N1074      N1075   1.325       .  A
N1074      C1078   1.346       .  A
N1075      C1076   1.347       .  A
C1076      C1077   1.381       .  A
C1076      H1079   1.082       .  S
C1077      C1078   1.382       .  A
C1077      C1464   1.469       .  S
C1078      H1080   1.082       .  S
N1081      N1082   1.321       .  A
N1081      C1085   1.347       .  A
N1081     Cu1089   2.079       .  S
N1082      C1083   1.346       .  A
N1082     Cu1088   2.074       .  S
C1083      C1084   1.384       .  A
C1083      H1086   1.082       .  S
C1084      C1085   1.385       .  A
C1084      C1208   1.474       .  S
C1085      H1087   1.082       .  S
Cu1088     N1091   2.074       .  S
Cu1089     N1099   2.080       .  S
Cu1090     N1092   2.098       .  S
Cu1090     N1098   2.098       .  S
N1091      N1092   1.323       .  A
N1091      C1095   1.343       .  A
N1092      C1093   1.352       .  A
C1093      C1094   1.389       .  A
C1093      H1096   1.082       .  S
C1094      C1095   1.380       .  A
C1094      C1179   1.477       .  S
C1095      H1097   1.082       .  S
N1098      N1099   1.325       .  A
N1098      C1102   1.349       .  A
N1099      C1100   1.346       .  A
C1100      C1101   1.382       .  A
C1100      H1103   1.082       .  S
C1101      C1102   1.385       .  A
C1101      C1384   1.475       .  S
C1102      H1104   1.082       .  S
N1105      N1106   1.323   1_545  A
N1105      C1109   1.351       .  A
N1105     Cu1113   2.096       .  S
N1106      C1107   1.345   1_565  A
N1106     Cu1112   2.080       .  S
C1107      C1108   1.384       .  A
C1107      H1110   1.082   1_545  S
C1108      C1109   1.387       .  A
C1108      C1176   1.480       .  S
C1109      H1111   1.082       .  S
Cu1112     N1115   2.079       .  S
Cu1113     N1123   2.096   1_545  S
Cu1114     N1116   2.075       .  S
Cu1114     N1122   2.075       .  S
N1115      N1116   1.322       .  A
N1115      C1119   1.345       .  A
N1116      C1117   1.347       .  A
C1117      C1118   1.384       .  A
C1117      H1120   1.082       .  S
C1118      C1119   1.383       .  A
C1118      C1160   1.472       .  S
C1119      H1121   1.082       .  S
N1122      N1123   1.324       .  A
N1122      C1126   1.345       .  A
N1123      C1124   1.350   1_565  A
C1124      C1125   1.387   1_545  A
C1124      H1127   1.082       .  S
C1125      C1126   1.380       .  A
C1125      C1512   1.476       .  S
C1126      H1128   1.082       .  S
N1129      N1130   1.321       .  A
N1129      C1133   1.349       .  A
N1129     Cu1137   2.074       .  S
N1130      C1131   1.342       .  A
N1130     Cu1136   2.067       .  S
C1131      C1132   1.382       .  A
C1131      H1134   1.081       .  S
C1132      C1133   1.385       .  A
C1132      C1163   1.472       .  S
C1133      H1135   1.081       .  S
Cu1136     N1139   2.067       .  S
Cu1137     N1147   2.075       .  S
Cu1138     N1140   2.075       .  S
Cu1138     N1146   2.076       .  S
N1139      N1140   1.322       .  A
N1139      C1143   1.342       .  A
N1140      C1141   1.348       .  A
C1141      C1142   1.385       .  A
C1141      H1144   1.082       .  S
C1142      C1143   1.380       .  A
C1142      C1192   1.468       .  S
C1143      H1145   1.082       .  S
N1146      N1147   1.324       .  A
N1146      C1150   1.346       .  A
N1147      C1148   1.343       .  A
C1148      C1149   1.381       .  A
C1148      H1151   1.082       .  S
C1149      C1150   1.380       .  A
C1149      C1307   1.466       .  S
C1150      H1152   1.082       .  S
C1153      C1158   1.381       .  A
C1153      C1154   1.399       .  A
C1153      O1159   1.316       .  A
C1154      C1155   1.398       .  A
C1154      H1165   1.082       .  S
C1155      C1164   1.356       .  A
C1155      C1156   1.380       .  A
C1156      C1157   1.408       .  A
C1156      O1162   1.324       .  A
C1157      C1158   1.408       .  A
C1157      H1166   1.082       .  S
C1158      C1161   1.367       .  A
O1159      C1160   1.328       .  A
C1160      C1161   1.394       .  A
C1161      H1167   1.082       .  S
O1162      C1163   1.333       .  A
C1163      C1164   1.388       .  A
C1164      H1168   1.082       .  S
C1169      C1174   1.379       .  A
C1169      C1170   1.410       .  A
C1169      O1175   1.324       .  A
C1170      C1171   1.409       .  A
C1170      H1181   1.082       .  S
C1171      C1180   1.370       .  A
C1171      C1172   1.380       .  A
C1172      C1173   1.402       .  A
C1172      O1178   1.317       .  A
C1173      C1174   1.401       .  A
C1173      H1182   1.082       .  S
C1174      C1177   1.360       .  A
O1175      C1176   1.334       .  A
C1176      C1177   1.391       .  A
C1177      H1183   1.082       .  S
O1178      C1179   1.330       .  A
C1179      C1180   1.395       .  A
C1180      H1184   1.082       .  S
C1185      C1190   1.380       .  A
C1185      C1186   1.401       .  A
C1185      O1191   1.316       .  A
C1186      C1187   1.400       .  A
C1186      H1197   1.082       .  S
C1187      C1196   1.359       .  A
C1187      C1188   1.380       .  A
C1188      C1189   1.405       .  A
C1188      O1194   1.320       .  A
C1189      C1190   1.404       .  A
C1189      H1198   1.082       .  S
C1190      C1193   1.364       .  A
O1191      C1192   1.329       .  A
C1192      C1193   1.392       .  A
C1193      H1199   1.082       .  S
O1194      C1195   1.331       .  A
C1195      C1196   1.390       .  A
C1196      H1200   1.082       .  S
C1201      C1206   1.380       .  A
C1201      C1202   1.406       .  A
C1201      O1207   1.321       .  A
C1202      C1203   1.405       .  A
C1202      H1213   1.082       .  S
C1203      C1212   1.366       .  A
C1203      C1204   1.380       .  A
C1204      C1205   1.405       .  A
C1204      O1210   1.319       .  A
C1205      C1206   1.403       .  A
C1205      H1214   1.082       .  S
C1206      C1209   1.363       .  A
O1207      C1208   1.331       .  A
C1208      C1209   1.392       .  A
C1209      H1215   1.082       .  S
O1210      C1211   1.331       .  A
C1211      C1212   1.391       .  A
C1212      H1216   1.082       .  S
C1217      C1222   1.380       .  A
C1217      C1218   1.408       .  A
C1217      O1223   1.323       .  A
C1218      C1219   1.407       .  A
C1218      H1229   1.082       .  S
C1219      C1228   1.367       .  A
C1219      C1220   1.380       .  A
C1220      C1221   1.402       .  A
C1220      O1226   1.318       .  A
C1221      C1222   1.401       .  A
C1221      H1230   1.082       .  S
C1222      C1225   1.360       .  A
O1223      C1224   1.333       .  A
C1224      C1225   1.391       .  A
C1225      H1231   1.082       .  S
O1226      C1227   1.330       .  A
C1227      C1228   1.394       .  A
C1228      H1232   1.082       .  S
C1233      C1238   1.380       .  A
C1233      C1234   1.401       .  A
C1233      O1239   1.318       .  A
C1234      C1235   1.401       .  A
C1234      H1245   1.082       .  S
C1235      C1244   1.358       .  A
C1235      C1236   1.380       .  A
C1236      C1237   1.406       .  A
C1236      O1242   1.322       .  A
C1237      C1238   1.406       .  A
C1237      H1246   1.082       .  S
C1238      C1241   1.364       .  A
O1239      C1240   1.330       .  A
C1240      C1241   1.393       .  A
C1241      H1247   1.082       .  S
O1242      C1243   1.332       .  A
C1243      C1244   1.391       .  A
C1244      H1248   1.082       .  S
C1249      C1254   1.380       .  A
C1249      C1250   1.405       .  A
C1249      O1255   1.319       .  A
C1250      C1251   1.403       .  A
C1250      H1261   1.082       .  S
C1251      C1260   1.364       .  A
C1251      C1252   1.380       .  A
C1252      C1253   1.406       .  A
C1252      O1258   1.320       .  A
C1253      C1254   1.404       .  A
C1253      H1262   1.082       .  S
C1254      C1257   1.365       .  A
O1255      C1256   1.331       .  A
C1256      C1257   1.392       .  A
C1257      H1263   1.082       .  S
O1258      C1259   1.332       .  A
C1259      C1260   1.391       .  A
C1260      H1264   1.082       .  S
C1265      C1270   1.380       .  A
C1265      C1266   1.402       .  A
C1265      O1271   1.317       .  A
C1266      C1267   1.401       .  A
C1266      H1277   1.082       .  S
C1267      C1276   1.359       .  A
C1267      C1268   1.380       .  A
C1268      C1269   1.406       .  A
C1268      O1274   1.322       .  A
C1269      C1270   1.406       .  A
C1269      H1278   1.082       .  S
C1270      C1273   1.366       .  A
O1271      C1272   1.330       .  A
C1272      C1273   1.393       .  A
C1273      H1279   1.082       .  S
O1274      C1275   1.332       .  A
C1275      C1276   1.390       .  A
C1276      H1280   1.082       .  S
C1281      C1286   1.380       .  A
C1281      C1282   1.402       .  A
C1281      O1287   1.317       .  A
C1282      C1283   1.401       .  A
C1282      H1293   1.082       .  S
C1283      C1292   1.361       .  A
C1283      C1284   1.380       .  A
C1284      C1285   1.404       .  A
C1284      O1290   1.319       .  A
C1285      C1286   1.403       .  A
C1285      H1294   1.082       .  S
C1286      C1289   1.363       .  A
O1287      C1288   1.330       .  A
C1288      C1289   1.391       .  A
C1289      H1295   1.082       .  S
O1290      C1291   1.331       .  A
C1291      C1292   1.390       .  A
C1292      H1296   1.082       .  S
C1297      C1302   1.381       .  A
C1297      C1298   1.400       .  A
C1297      O1303   1.316       .  A
C1298      C1299   1.399       .  A
C1298      H1309   1.082       .  S
C1299      C1308   1.358       .  A
C1299      C1300   1.381       .  A
C1300      C1301   1.404       .  A
C1300      O1306   1.319       .  A
C1301      C1302   1.403       .  A
C1301      H1310   1.082       .  S
C1302      C1305   1.362       .  A
O1303      C1304   1.328       .  A
C1304      C1305   1.392       .  A
C1305      H1311   1.082       .  S
O1306      C1307   1.331       .  A
C1307      C1308   1.389       .  A
C1308      H1312   1.082       .  S
C1313      C1318   1.381       .  A
C1313      C1314   1.400       .  A
C1313      O1319   1.316       .  A
C1314      C1315   1.400       .  A
C1314      H1325   1.082       .  S
C1315      C1324   1.357       .  A
C1315      C1316   1.380       .  A
C1316      C1317   1.407       .  A
C1316      O1322   1.323       .  A
C1317      C1318   1.406       .  A
C1317      H1326   1.082       .  S
C1318      C1321   1.366       .  A
O1319      C1320   1.329       .  A
C1320      C1321   1.393       .  A
C1321      H1327   1.082       .  S
O1322      C1323   1.332       .  A
C1323      C1324   1.391       .  A
C1324      H1328   1.082       .  S
C1329      C1334   1.380       .  A
C1329      C1330   1.404       .  A
C1329      O1335   1.318       .  A
C1330      C1331   1.402       .  A
C1330      H1341   1.082       .  S
C1331      C1340   1.362       .  A
C1331      C1332   1.380       .  A
C1332      C1333   1.402       .  A
C1332      O1338   1.317       .  A
C1333      C1334   1.401       .  A
C1333      H1342   1.082       .  S
C1334      C1337   1.361       .  A
O1335      C1336   1.331       .  A
C1336      C1337   1.390       .  A
C1337      H1343   1.082       .  S
O1338      C1339   1.329       .  A
C1339      C1340   1.391       .  A
C1340      H1344   1.082       .  S
C1345      C1350   1.380       .  A
C1345      C1346   1.403       .  A
C1345      O1351   1.318       .  A
C1346      C1347   1.402       .  A
C1346      H1357   1.082       .  S
C1347      C1356   1.361       .  A
C1347      C1348   1.380       .  A
C1348      C1349   1.408       .  A
C1348      O1354   1.323       .  A
C1349      C1350   1.407       .  A
C1349      H1358   1.082       .  S
C1350      C1353   1.368       .  A
O1351      C1352   1.331       .  A
C1352      C1353   1.393       .  A
C1353      H1359   1.082       .  S
O1354      C1355   1.333       .  A
C1355      C1356   1.392       .  A
C1356      H1360   1.082       .  S
C1361      C1366   1.380       .  A
C1361      C1362   1.401       .  A
C1361      O1367   1.318       .  A
C1362      C1363   1.401       .  A
C1362      H1373   1.082       .  S
C1363      C1372   1.358       .  A
C1363      C1364   1.380       .  A
C1364      C1365   1.407       .  A
C1364      O1370   1.323       .  A
C1365      C1366   1.407       .  A
C1365      H1374   1.082       .  S
C1366      C1369   1.365       .  A
O1367      C1368   1.330       .  A
C1368      C1369   1.394       .  A
C1369      H1375   1.082       .  S
O1370      C1371   1.332       .  A
C1371      C1372   1.390       .  A
C1372      H1376   1.082       .  S
C1377      C1382   1.380       .  A
C1377      C1378   1.404       .  A
C1377      O1383   1.320       .  A
C1378      C1379   1.403       .  A
C1378      H1389   1.082       .  S
C1379      C1388   1.362       .  A
C1379      C1380   1.380       .  A
C1380      C1381   1.405       .  A
C1380      O1386   1.320       .  A
C1381      C1382   1.405       .  A
C1381      H1390   1.082       .  S
C1382      C1385   1.364       .  A
O1383      C1384   1.331       .  A
C1384      C1385   1.393       .  A
C1385      H1391   1.082       .  S
O1386      C1387   1.332       .  A
C1387      C1388   1.392       .  A
C1388      H1392   1.082       .  S
C1393      C1398   1.380       .  A
C1393      C1394   1.405       .  A
C1393      O1399   1.320       .  A
C1394      C1395   1.405       .  A
C1394      H1405   1.082       .  S
C1395      C1404   1.365       .  A
C1395      C1396   1.381       .  A
C1396      C1397   1.400       .  A
C1396      O1402   1.316       .  A
C1397      C1398   1.399       .  A
C1397      H1406   1.082       .  S
C1398      C1401   1.358       .  A
O1399      C1400   1.331       .  A
C1400      C1401   1.390       .  A
C1401      H1407   1.082       .  S
O1402      C1403   1.329       .  A
C1403      C1404   1.392       .  A
C1404      H1408   1.082       .  S
C1409      C1414   1.381       .  A
C1409      C1410   1.398       .  A
C1409      O1415   1.315       .  A
C1410      C1411   1.397       .  A
C1410      H1421   1.082       .  S
C1411      C1420   1.353       .  A
C1411      C1412   1.380       .  A
C1412      C1413   1.408       .  A
C1412      O1418   1.324       .  A
C1413      C1414   1.408       .  A
C1413      H1422   1.082       .  S
C1414      C1417   1.367       .  A
O1415      C1416   1.328       .  A
C1416      C1417   1.394       .  A
C1417      H1423   1.082       .  S
O1418      C1419   1.333       .  A
C1419      C1420   1.389       .  A
C1420      H1424   1.082       .  S
C1425      C1430   1.380       .  A
C1425      C1426   1.405       .  A
C1425      O1431   1.321       .  A
C1426      C1427   1.404       .  A
C1426      H1437   1.082       .  S
C1427      C1436   1.363       .  A
C1427      C1428   1.380       .  A
C1428      C1429   1.402       .  A
C1428      O1434   1.317       .  A
C1429      C1430   1.401       .  A
C1429      H1438   1.082       .  S
C1430      C1433   1.359       .  A
O1431      C1432   1.331       .  A
C1432      C1433   1.390       .  A
C1433      H1439   1.082       .  S
O1434      C1435   1.330       .  A
C1435      C1436   1.391       .  A
C1436      H1440   1.082       .  S
C1441      C1446   1.380       .  A
C1441      C1442   1.402       .  A
C1441      O1447   1.318       .  A
C1442      C1443   1.402       .  A
C1442      H1453   1.082       .  S
C1443      C1452   1.360       .  A
C1443      C1444   1.380       .  A
C1444      C1445   1.405       .  A
C1444      O1450   1.321       .  A
C1445      C1446   1.405       .  A
C1445      H1454   1.082       .  S
C1446      C1449   1.364       .  A
O1447      C1448   1.331       .  A
C1448      C1449   1.392       .  A
C1449      H1455   1.082       .  S
O1450      C1451   1.332       .  A
C1451      C1452   1.391       .  A
C1452      H1456   1.082       .  S
C1457      C1462   1.380       .  A
C1457      C1458   1.406       .  A
C1457      O1463   1.321       .  A
C1458      C1459   1.405       .  A
C1458      H1469   1.082       .  S
C1459      C1468   1.365       .  A
C1459      C1460   1.380       .  A
C1460      C1461   1.402       .  A
C1460      O1466   1.318       .  A
C1461      C1462   1.401       .  A
C1461      H1470   1.082       .  S
C1462      C1465   1.361       .  A
O1463      C1464   1.332       .  A
C1464      C1465   1.389       .  A
C1465      H1471   1.082       .  S
O1466      C1467   1.330       .  A
C1467      C1468   1.393       .  A
C1468      H1472   1.082       .  S
C1473      C1478   1.380       .  A
C1473      C1474   1.404       .  A
C1473      O1479   1.319       .  A
C1474      C1475   1.403       .  A
C1474      H1485   1.082       .  S
C1475      C1484   1.362       .  A
C1475      C1476   1.380       .  A
C1476      C1477   1.405       .  A
C1476      O1482   1.320       .  A
C1477      C1478   1.404       .  A
C1477      H1486   1.082       .  S
C1478      C1481   1.363       .  A
O1479      C1480   1.331       .  A
C1480      C1481   1.392       .  A
C1481      H1487   1.082       .  S
O1482      C1483   1.331       .  A
C1483      C1484   1.391       .  A
C1484      H1488   1.082       .  S
C1489      C1494   1.380       .  A
C1489      C1490   1.410       .  A
C1489      O1495   1.325       .  A
C1490      C1491   1.410       .  A
C1490      H1501   1.082       .  S
C1491      C1500   1.370       .  A
C1491      C1492   1.380       .  A
C1492      C1493   1.399       .  A
C1492      O1498   1.316       .  A
C1493      C1494   1.398       .  A
C1493      H1502   1.082       .  S
C1494      C1497   1.355       .  A
O1495      C1496   1.334       .  A
C1496      C1497   1.388       .  A
C1497      H1503   1.082       .  S
O1498      C1499   1.328       .  A
C1499      C1500   1.396       .  A
C1500      H1504   1.082       .  S
C1505      C1510   1.380   1_565  A
C1505      C1506   1.406       .  A
C1505      O1511   1.320       .  A
C1506      C1507   1.405       .  A
C1506      H1517   1.082       .  S
C1507      C1516   1.365       .  A
C1507      C1508   1.380   1_565  A
C1508      C1509   1.405       .  A
C1508      O1514   1.320       .  A
C1509      C1510   1.404       .  A
C1509      H1518   1.082       .  S
C1510      C1513   1.365       .  A
O1511      C1512   1.332       .  A
C1512      C1513   1.392   1_565  A
C1513      H1519   1.082       .  S
O1514      C1515   1.332       .  A
C1515      C1516   1.392   1_545  A
C1516      H1520   1.082       .  S
C1521      C1526   1.381       .  A
C1521      C1522   1.402       .  A
C1521      O1527   1.318       .  A
C1522      C1523   1.401       .  A
C1522      H1533   1.082       .  S
C1523      C1532   1.360       .  A
C1523      C1524   1.380       .  A
C1524      C1525   1.406       .  A
C1524      O1530   1.322       .  A
C1525      C1526   1.406       .  A
C1525      H1534   1.082       .  S
C1526      C1529   1.366       .  A
O1527      C1528   1.330       .  A
C1528      C1529   1.392       .  A
C1529      H1535   1.082       .  S
O1530      C1531   1.332       .  A
C1531      C1532   1.390       .  A
C1532      H1536   1.082       .  S
C1537      C1542   1.380   1_545  A
C1537      C1538   1.403       .  A
C1537      O1543   1.318       .  A
C1538      C1539   1.402       .  A
C1538      H1549   1.082       .  S
C1539      C1548   1.362       .  A
C1539      C1540   1.380   1_545  A
C1540      C1541   1.405       .  A
C1540      O1546   1.319       .  A
C1541      C1542   1.404       .  A
C1541      H1550   1.082       .  S
C1542      C1545   1.364       .  A
O1543      C1544   1.330   1_545  A
C1544      C1545   1.391       .  A
C1545      H1551   1.082       .  S
O1546      C1547   1.331   1_565  A
C1547      C1548   1.390       .  A
C1548      H1552   1.082       .  S
C1553      C1558   1.380       .  A
C1553      C1554   1.405       .  A
C1553      O1559   1.320       .  A
C1554      C1555   1.404       .  A
C1554      H1565   1.082       .  S
C1555      C1564   1.365       .  A
C1555      C1556   1.381       .  A
C1556      C1557   1.401       .  A
C1556      O1562   1.316       .  A
C1557      C1558   1.399       .  A
C1557      H1566   1.082       .  S
C1558      C1561   1.358       .  A
O1559      C1560   1.331       .  A
C1560      C1561   1.390       .  A
C1561      H1567   1.082       .  S
O1562      C1563   1.329       .  A
C1563      C1564   1.392       .  A
C1564      H1568   1.082       .  S
C1569      C1574   1.380       .  A
C1569      C1570   1.401       .  A
C1569      O1575   1.316       .  A
C1570      C1571   1.399       .  A
C1570      H1581   1.082       .  S
C1571      C1580   1.359       .  A
C1571      C1572   1.380       .  A
C1572      C1573   1.409       .  A
C1572      O1578   1.323       .  A
C1573      C1574   1.408       .  A
C1573      H1582   1.082       .  S
C1574      C1577   1.369       .  A
O1575      C1576   1.329       .  A
C1576      C1577   1.394       .  A
C1577      H1583   1.082       .  S
O1578      C1579   1.333       .  A
C1579      C1580   1.389       .  A
C1580      H1584   1.082       .  S
C1585      C1590   1.380       .  A
C1585      C1586   1.404       .  A
C1585      O1591   1.320       .  A
C1586      C1587   1.403       .  A
C1586      H1597   1.082       .  S
C1587      C1596   1.362       .  A
C1587      C1588   1.380       .  A
C1588      C1589   1.401       .  A
C1588      O1594   1.317       .  A
C1589      C1590   1.401       .  A
C1589      H1598   1.082       .  S
C1590      C1593   1.358       .  A
O1591      C1592   1.331       .  A
C1592      C1593   1.391       .  A
C1593      H1599   1.082       .  S
O1594      C1595   1.330       .  A
C1595      C1596   1.391       .  A
C1596      H1600   1.082       .  S
C1601      C1606   1.380       .  A
C1601      C1602   1.405       .  A
C1601      O1607   1.320       .  A
C1602      C1603   1.404       .  A
C1602      H1613   1.082       .  S
C1603      C1612   1.365       .  A
C1603      C1604   1.381       .  A
C1604      C1605   1.403       .  A
C1604      O1610   1.318       .  A
C1605      C1606   1.402       .  A
C1605      H1614   1.082       .  S
C1606      C1609   1.362       .  A
O1607      C1608   1.331       .  A
C1608      C1609   1.390       .  A
C1609      H1615   1.082       .  S
O1610      C1611   1.330       .  A
C1611      C1612   1.391       .  A
C1612      H1616   1.082       .  S
C1617      C1622   1.381       .  A
C1617      C1618   1.404       .  A
C1617      O1623   1.320       .  A
C1618      C1619   1.404       .  A
C1618      H1629   1.082       .  S
C1619      C1628   1.362       .  A
C1619      C1620   1.380       .  A
C1620      C1621   1.401       .  A
C1620      O1626   1.317   1_556  A
C1621      C1622   1.400       .  A
C1621      H1630   1.082   1_556  S
C1622      C1625   1.358       .  A
O1623      C1624   1.330       .  A
C1624      C1625   1.389       .  A
C1625      H1631   1.082       .  S
O1626      C1627   1.329       .  A
C1627      C1628   1.392   1_554  A
C1628      H1632   1.082       .  S
C1633      C1638   1.380       .  A
C1633      C1634   1.405       .  A
C1633      O1639   1.320       .  A
C1634      C1635   1.404       .  A
C1634      H1645   1.082       .  S
C1635      C1644   1.364       .  A
C1635      C1636   1.380       .  A
C1636      C1637   1.408       .  A
C1636      O1642   1.323       .  A
C1637      C1638   1.407       .  A
C1637      H1646   1.082       .  S
C1638      C1641   1.368       .  A
O1639      C1640   1.332       .  A
C1640      C1641   1.393       .  A
C1641      H1647   1.082       .  S
O1642      C1643   1.332       .  A
C1643      C1644   1.391       .  A
C1644      H1648   1.082       .  S
C1649      C1654   1.380       .  A
C1649      C1650   1.406       .  A
C1649      O1655   1.322       .  A
C1650      C1651   1.406       .  A
C1650      H1661   1.082       .  S
C1651      C1660   1.365       .  A
C1651      C1652   1.380       .  A
C1652      C1653   1.403       .  A
C1652      O1658   1.319       .  A
C1653      C1654   1.402       .  A
C1653      H1662   1.082       .  S
C1654      C1657   1.360       .  A
O1655      C1656   1.332       .  A
C1656      C1657   1.392       .  A
C1657      H1663   1.082       .  S
O1658      C1659   1.330       .  A
C1659      C1660   1.393       .  A
C1660      H1664   1.082       .  S
C1665      C1670   1.380       .  A
C1665      C1666   1.402       .  A
C1665      O1671   1.318       .  A
C1666      C1667   1.402       .  A
C1666      H1677   1.082       .  S
C1667      C1676   1.361       .  A
C1667      C1668   1.380       .  A
C1668      C1669   1.405       .  A
C1668      O1674   1.321       .  A
C1669      C1670   1.405       .  A
C1669      H1678   1.082       .  S
C1670      C1673   1.364       .  A
O1671      C1672   1.330       .  A
C1672      C1673   1.393       .  A
C1673      H1679   1.082       .  S
O1674      C1675   1.332       .  A
C1675      C1676   1.390       .  A
C1676      H1680   1.082       .  S
C1681      C1686   1.380       .  A
C1681      C1682   1.403       .  A
C1681      O1687   1.320       .  A
C1682      C1683   1.403       .  A
C1682      H1693   1.082       .  S
C1683      C1692   1.360       .  A
C1683      C1684   1.380       .  A
C1684      C1685   1.405       .  A
C1684      O1690   1.322       .  A
C1685      C1686   1.405       .  A
C1685      H1694   1.082       .  S
C1686      C1689   1.363       .  A
O1687      C1688   1.330       .  A
C1688      C1689   1.393       .  A
C1689      H1695   1.082       .  S
O1690      C1691   1.332       .  A
C1691      C1692   1.390       .  A
C1692      H1696   1.082       .  S
C1697      C1702   1.380       .  A
C1697      C1698   1.403       .  A
C1697      O1703   1.319       .  A
C1698      C1699   1.403       .  A
C1698      H1709   1.082       .  S
C1699      C1708   1.360       .  A
C1699      C1700   1.380       .  A
C1700      C1701   1.405       .  A
C1700      O1706   1.321       .  A
C1701      C1702   1.405       .  A
C1701      H1710   1.082       .  S
C1702      C1705   1.363       .  A
O1703      C1704   1.330       .  A
C1704      C1705   1.392       .  A
C1705      H1711   1.082       .  S
O1706      C1707   1.331       .  A
C1707      C1708   1.391       .  A
C1708      H1712   1.082       .  S
C1713      C1718   1.380       .  A
C1713      C1714   1.404       .  A
C1713      O1719   1.321   1_556  A
C1714      C1715   1.404       .  A
C1714      H1725   1.082       .  S
C1715      C1724   1.360       .  A
C1715      C1716   1.380       .  A
C1716      C1717   1.405       .  A
C1716      O1722   1.322       .  A
C1717      C1718   1.405       .  A
C1717      H1726   1.082       .  S
C1718      C1721   1.363       .  A
O1719      C1720   1.332       .  A
C1720      C1721   1.393   1_554  A
C1721      H1727   1.082       .  S
O1722      C1723   1.331       .  A
C1723      C1724   1.392       .  A
C1724      H1728   1.082       .  S
C1729      C1734   1.381       .  A
C1729      C1730   1.402       .  A
C1729      O1735   1.318       .  A
C1730      C1731   1.401       .  A
C1730      H1741   1.082       .  S
C1731      C1740   1.360       .  A
C1731      C1732   1.381       .  A
C1732      C1733   1.401       .  A
C1732      O1738   1.316       .  A
C1733      C1734   1.400       .  A
C1733      H1742   1.082       .  S
C1734      C1737   1.358       .  A
O1735      C1736   1.329       .  A
C1736      C1737   1.390       .  A
C1737      H1743   1.082       .  S
O1738      C1739   1.329       .  A
C1739      C1740   1.389       .  A
C1740      H1744   1.082       .  S
C1745      C1750   1.380       .  A
C1745      C1746   1.406       .  A
C1745      O1751   1.322       .  A
C1746      C1747   1.405       .  A
C1746      H1757   1.082       .  S
C1747      C1756   1.364       .  A
C1747      C1748   1.380       .  A
C1748      C1749   1.403       .  A
C1748      O1754   1.319       .  A
C1749      C1750   1.402       .  A
C1749      H1758   1.082       .  S
C1750      C1753   1.361       .  A
O1751      C1752   1.332       .  A
C1752      C1753   1.390       .  A
C1753      H1759   1.082       .  S
O1754      C1755   1.331       .  A
C1755      C1756   1.393       .  A
C1756      H1760   1.082       .  S
C1761      C1766   1.380       .  A
C1761      C1762   1.404       .  A
C1761      O1767   1.319       .  A
C1762      C1763   1.403       .  A
C1762      H1773   1.082       .  S
C1763      C1772   1.363       .  A
C1763      C1764   1.380       .  A
C1764      C1765   1.400       .  A
C1764      O1770   1.315       .  A
C1765      C1766   1.399       .  A
C1765      H1774   1.082       .  S
C1766      C1769   1.358       .  A
O1767      C1768   1.330       .  A
C1768      C1769   1.390       .  A
C1769      H1775   1.082       .  S
O1770      C1771   1.329       .  A
C1771      C1772   1.391       .  A
C1772      H1776   1.082       .  S
C1777      C1782   1.380       .  A
C1777      C1778   1.402       .  A
C1777      O1783   1.316       .  A
C1778      C1779   1.401       .  A
C1778      H1789   1.082       .  S
C1779      C1788   1.360       .  A
C1779      C1780   1.381       .  A
C1780      C1781   1.403       .  A
C1780      O1786   1.318       .  A
C1781      C1782   1.402       .  A
C1781      H1790   1.082       .  S
C1782      C1785   1.362       .  A
O1783      C1784   1.330       .  A
C1784      C1785   1.390       .  A
C1785      H1791   1.082       .  S
O1786      C1787   1.330       .  A
C1787      C1788   1.391       .  A
C1788      H1792   1.082       .  S
C1793      C1798   1.380       .  A
C1793      C1794   1.401       .  A
C1793      O1799   1.316       .  A
C1794      C1795   1.400       .  A
C1794      H1805   1.082       .  S
C1795      C1804   1.359       .  A
C1795      C1796   1.380       .  A
C1796      C1797   1.406       .  A
C1796      O1802   1.320       .  A
C1797      C1798   1.405       .  A
C1797      H1806   1.082   1_554  S
C1798      C1801   1.365       .  A
O1799      C1800   1.329       .  A
C1800      C1801   1.392       .  A
C1801      H1807   1.082       .  S
O1802      C1803   1.332       .  A
C1803      C1804   1.390       .  A
C1804      H1808   1.082       .  S
C1809      C1814   1.380       .  A
C1809      C1810   1.401       .  A
C1809      O1815   1.317       .  A
C1810      C1811   1.400       .  A
C1810      H1821   1.082       .  S
C1811      C1820   1.358       .  A
C1811      C1812   1.380       .  A
C1812      C1813   1.409       .  A
C1812      O1818   1.324       .  A
C1813      C1814   1.409       .  A
C1813      H1822   1.082       .  S
C1814      C1817   1.369       .  A
O1815      C1816   1.329       .  A
C1816      C1817   1.395       .  A
C1817      H1823   1.082       .  S
O1818      C1819   1.334       .  A
C1819      C1820   1.390       .  A
C1820      H1824   1.082       .  S
C1825      C1830   1.380       .  A
C1825      C1826   1.406       .  A
C1825      O1831   1.321       .  A
C1826      C1827   1.405       .  A
C1826      H1837   1.082       .  S
C1827      C1836   1.364       .  A
C1827      C1828   1.380       .  A
C1828      C1829   1.403       .  A
C1828      O1834   1.319       .  A
C1829      C1830   1.403       .  A
C1829      H1838   1.082   1_554  S
C1830      C1833   1.361       .  A
O1831      C1832   1.332       .  A
C1832      C1833   1.391       .  A
C1833      H1839   1.082   1_554  S
O1834      C1835   1.331       .  A
C1835      C1836   1.392       .  A
C1836      H1840   1.082       .  S
C1841      C1846   1.380       .  A
C1841      C1842   1.401       .  A
C1841      O1847   1.318       .  A
C1842      C1843   1.401       .  A
C1842      H1853   1.082       .  S
C1843      C1852   1.358       .  A
C1843      C1844   1.380       .  A
C1844      C1845   1.408       .  A
C1844      O1850   1.324       .  A
C1845      C1846   1.408       .  A
C1845      H1854   1.082       .  S
C1846      C1849   1.366       .  A
O1847      C1848   1.330       .  A
C1848      C1849   1.394       .  A
C1849      H1855   1.082       .  S
O1850      C1851   1.334       .  A
C1851      C1852   1.391       .  A
C1852      H1856   1.082       .  S
C1857      C1862   1.380       .  A
C1857      C1858   1.404       .  A
C1857      O1863   1.319       .  A
C1858      C1859   1.403       .  A
C1858      H1869   1.082       .  S
C1859      C1868   1.361       .  A
C1859      C1860   1.380       .  A
C1860      C1861   1.406       .  A
C1860      O1866   1.322       .  A
C1861      C1862   1.405       .  A
C1861      H1870   1.082       .  S
C1862      C1865   1.365       .  A
O1863      C1864   1.331       .  A
C1864      C1865   1.392       .  A
C1865      H1871   1.082       .  S
O1866      C1867   1.332       .  A
C1867      C1868   1.392       .  A
C1868      H1872   1.082       .  S
C1873      C1878   1.380       .  A
C1873      C1874   1.403       .  A
C1873      O1879   1.318       .  A
C1874      C1875   1.402       .  A
C1874      H1885   1.082       .  S
C1875      C1884   1.362       .  A
C1875      C1876   1.380       .  A
C1876      C1877   1.405       .  A
C1876      O1882   1.320       .  A
C1877      C1878   1.404       .  A
C1877      H1886   1.082       .  S
C1878      C1881   1.364       .  A
O1879      C1880   1.331       .  A
C1880      C1881   1.392       .  A
C1881      H1887   1.082       .  S
O1882      C1883   1.332       .  A
C1883      C1884   1.391       .  A
C1884      H1888   1.082       .  S
C1889      C1894   1.380       .  A
C1889      C1890   1.408       .  A
C1889      O1895   1.323       .  A
C1890      C1891   1.408       .  A
C1890      H1901   1.082       .  S
C1891      C1900   1.368       .  A
C1891      C1892   1.380       .  A
C1892      C1893   1.403       .  A
C1892      O1898   1.318       .  A
C1893      C1894   1.402       .  A
C1893      H1902   1.082       .  S
C1894      C1897   1.360       .  A
O1895      C1896   1.333       .  A
C1896      C1897   1.390       .  A
C1897      H1903   1.082       .  S
O1898      C1899   1.331       .  A
C1899      C1900   1.394       .  A
C1900      H1904   1.082       .  S
C1905      C1910   1.380       .  A
C1905      C1906   1.410       .  A
C1905      O1911   1.324       .  A
C1906      C1907   1.409       .  A
C1906      H1917   1.082       .  S
C1907      C1916   1.370       .  A
C1907      C1908   1.380       .  A
C1908      C1909   1.399       .  A
C1908      O1914   1.314       .  A
C1909      C1910   1.397       .  A
C1909      H1918   1.082       .  S
C1910      C1913   1.357       .  A
O1911      C1912   1.334       .  A
C1912      C1913   1.388       .  A
C1913      H1919   1.082       .  S
O1914      C1915   1.328       .  A
C1915      C1916   1.395       .  A
C1916      H1920   1.082       .  S
C1921      C1926   1.380       .  A
C1921      C1922   1.405       .  A
C1921      O1927   1.320       .  A
C1922      C1923   1.404       .  A
C1922      H1933   1.082       .  S
C1923      C1932   1.363       .  A
C1923      C1924   1.380       .  A
C1924      C1925   1.404       .  A
C1924      O1930   1.320       .  A
C1925      C1926   1.403       .  A
C1925      H1934   1.082       .  S
C1926      C1929   1.362       .  A
O1927      C1928   1.332       .  A
C1928      C1929   1.392       .  A
C1929      H1935   1.082       .  S
O1930      C1931   1.331       .  A
C1931      C1932   1.392       .  A
C1932      H1936   1.082       .  S
C1937      C1942   1.380   1_455  A
C1937      C1938   1.401       .  A
C1937      O1943   1.318       .  A
C1938      C1939   1.401       .  A
C1938      H1949   1.082       .  S
C1939      C1948   1.360       .  A
C1939      C1940   1.380   1_455  A
C1940      C1941   1.406       .  A
C1940      O1946   1.321       .  A
C1941      C1942   1.406       .  A
C1941      H1950   1.082       .  S
C1942      C1945   1.365       .  A
O1943      C1944   1.329   1_455  A
C1944      C1945   1.394       .  A
C1945      H1951   1.082       .  S
O1946      C1947   1.332   1_655  A
C1947      C1948   1.390       .  A
C1948      H1952   1.082       .  S
C1953      C1958   1.380       .  A
C1953      C1954   1.404       .  A
C1953      O1959   1.320       .  A
C1954      C1955   1.403       .  A
C1954      H1965   1.082       .  S
C1955      C1964   1.363       .  A
C1955      C1956   1.380       .  A
C1956      C1957   1.402       .  A
C1956      O1962   1.318       .  A
C1957      C1958   1.402       .  A
C1957      H1966   1.082       .  S
C1958      C1961   1.360       .  A
O1959      C1960   1.331       .  A
C1960      C1961   1.390       .  A
C1961      H1967   1.082       .  S
O1962      C1963   1.330       .  A
C1963      C1964   1.391       .  A
C1964      H1968   1.082       .  S
C1969      C1974   1.380       .  A
C1969      C1970   1.405       .  A
C1969      O1975   1.320       .  A
C1970      C1971   1.404       .  A
C1970      H1981   1.081       .  S
C1971      C1980   1.363       .  A
C1971      C1972   1.380       .  A
C1972      C1973   1.407       .  A
C1972      O1978   1.321       .  A
C1973      C1974   1.406       .  A
C1973      H1982   1.081       .  S
C1974      C1977   1.365       .  A
O1975      C1976   1.331       .  A
C1976      C1977   1.393       .  A
C1977      H1983   1.082       .  S
O1978      C1979   1.332       .  A
C1979      C1980   1.391       .  A
C1980      H1984   1.082       .  S
C1985      C1990   1.380   1_455  A
C1985      C1986   1.404       .  A
C1985      O1991   1.320       .  A
C1986      C1987   1.403       .  A
C1986      H1997   1.082       .  S
C1987      C1996   1.362       .  A
C1987      C1988   1.380       .  A
C1988      C1989   1.404   1_455  A
C1988      O1994   1.320   1_455  A
C1989      C1990   1.404       .  A
C1989      H1998   1.082       .  S
C1990      C1993   1.362       .  A
O1991      C1992   1.331   1_455  A
C1992      C1993   1.391       .  A
C1993      H1999   1.082       .  S
O1994      C1995   1.331   1_655  A
C1995      C1996   1.391       .  A
C1996      H2000   1.082       .  S
C2001      C2006   1.381       .  A
C2001      C2002   1.399       .  A
C2001      O2007   1.315       .  A
C2002      C2003   1.398       .  A
C2002      H2013   1.082       .  S
C2003      C2012   1.356       .  A
C2003      C2004   1.380       .  A
C2004      C2005   1.408       .  A
C2004      O2010   1.323       .  A
C2005      C2006   1.408       .  A
C2005      H2014   1.082       .  S
C2006      C2009   1.368       .  A
O2007      C2008   1.328       .  A
C2008      C2009   1.394       .  A
C2009      H2015   1.082       .  S
O2010      C2011   1.334       .  A
C2011      C2012   1.389       .  A
C2012      H2016   1.082       .  S
C2017      C2022   1.380       .  A
C2017      C2018   1.404       .  A
C2017      O2023   1.321       .  A
C2018      C2019   1.404       .  A
C2018      H2029   1.082       .  S
C2019      C2028   1.362       .  A
C2019      C2020   1.380       .  A
C2020      C2021   1.404       .  A
C2020      O2026   1.321       .  A
C2021      C2022   1.404       .  A
C2021      H2030   1.082       .  S
C2022      C2025   1.361       .  A
O2023      C2024   1.331       .  A
C2024      C2025   1.392       .  A
C2025      H2031   1.082       .  S
O2026      C2027   1.331       .  A
C2027      C2028   1.392       .  A
C2028      H2032   1.082       .  S
C2033      C2038   1.379       .  A
C2033      C2034   1.409       .  A
C2033      O2039   1.324       .  A
C2034      C2035   1.408       .  A
C2034      H2045   1.082       .  S
C2035      C2044   1.369       .  A
C2035      C2036   1.380       .  A
C2036      C2037   1.401       .  A
C2036      O2042   1.316       .  A
C2037      C2038   1.400       .  A
C2037      H2046   1.082       .  S
C2038      C2041   1.358       .  A
O2039      C2040   1.334       .  A
C2040      C2041   1.390       .  A
C2041      H2047   1.082       .  S
O2042      C2043   1.330       .  A
C2043      C2044   1.394       .  A
C2044      H2048   1.082       .  S
C2049      C2054   1.380       .  A
C2049      C2050   1.402       .  A
C2049      O2055   1.318       .  A
C2050      C2051   1.401       .  A
C2050      H2061   1.082       .  S
C2051      C2060   1.359       .  A
C2051      C2052   1.380       .  A
C2052      C2053   1.407       .  A
C2052      O2058   1.322       .  A
C2053      C2054   1.406       .  A
C2053      H2062   1.082       .  S
C2054      C2057   1.366       .  A
O2055      C2056   1.330       .  A
C2056      C2057   1.393       .  A
C2057      H2063   1.082       .  S
O2058      C2059   1.333       .  A
C2059      C2060   1.390       .  A
C2060      H2064   1.082       .  S
C2065      C2070   1.381       .  A
C2065      C2066   1.403       .  A
C2065      O2071   1.321       .  A
C2066      C2067   1.403       .  A
C2066      H2077   1.082       .  S
C2067      C2076   1.360       .  A
C2067      C2068   1.380       .  A
C2068      C2069   1.403       .  A
C2068      O2074   1.320       .  A
C2069      C2070   1.403       .  A
C2069      H2078   1.082       .  S
C2070      C2073   1.360       .  A
O2071      C2072   1.330       .  A
C2072      C2073   1.391       .  A
C2073      H2079   1.082       .  S
O2074      C2075   1.331       .  A
C2075      C2076   1.392       .  A
C2076      H2080   1.082       .  S
C2081      C2086   1.380       .  A
C2081      C2082   1.405       .  A
C2081      O2087   1.318       .  A
C2082      C2083   1.403       .  A
C2082      H2093   1.082       .  S
C2083      C2092   1.364       .  A
C2083      C2084   1.380       .  A
C2084      C2085   1.405       .  A
C2084      O2090   1.319       .  A
C2085      C2086   1.404       .  A
C2085      H2094   1.082       .  S
C2086      C2089   1.366       .  A
O2087      C2088   1.332       .  A
C2088      C2089   1.392       .  A
C2089      H2095   1.082       .  S
O2090      C2091   1.331       .  A
C2091      C2092   1.392       .  A
C2092      H2096   1.082       .  S
C2097      C2102   1.380       .  A
C2097      C2098   1.406       .  A
C2097      O2103   1.322       .  A
C2098      C2099   1.406       .  A
C2098      H2109   1.082       .  S
C2099      C2108   1.363       .  A
C2099      C2100   1.381       .  A
C2100      C2101   1.398       .  A
C2100      O2106   1.316       .  A
C2101      C2102   1.398       .  A
C2101      H2110   1.082       .  S
C2102      C2105   1.354       .  A
O2103      C2104   1.332       .  A
C2104      C2105   1.389       .  A
C2105      H2111   1.082       .  S
O2106      C2107   1.328       .  A
C2107      C2108   1.392       .  A
C2108      H2112   1.082       .  S
C2113      C2118   1.380   1_655  A
C2113      C2114   1.405       .  A
C2113      O2119   1.321       .  A
C2114      C2115   1.404   1_655  A
C2114      H2125   1.082       .  S
C2115      C2124   1.363   1_455  A
C2115      C2116   1.380       .  A
C2116      C2117   1.405       .  A
C2116      O2122   1.321       .  A
C2117      C2118   1.405       .  A
C2117      H2126   1.082       .  S
C2118      C2121   1.363       .  A
O2119      C2120   1.331       .  A
C2120      C2121   1.392   1_655  A
C2121      H2127   1.082       .  S
O2122      C2123   1.332       .  A
C2123      C2124   1.392   1_455  A
C2124      H2128   1.082       .  S
C2129      C2134   1.381   1_565  A
C2129      C2130   1.404       .  A
C2129      O2135   1.320       .  A
C2130      C2131   1.404       .  A
C2130      H2141   1.082       .  S
C2131      C2140   1.363       .  A
C2131      C2132   1.381   1_565  A
C2132      C2133   1.401       .  A
C2132      O2138   1.317       .  A
C2133      C2134   1.400       .  A
C2133      H2142   1.082       .  S
C2134      C2137   1.358       .  A
O2135      C2136   1.331       .  A
C2136      C2137   1.389   1_565  A
C2137      H2143   1.082       .  S
O2138      C2139   1.329       .  A
C2139      C2140   1.392   1_545  A
C2140      H2144   1.082       .  S
C2145      C2150   1.380       .  A
C2145      C2146   1.405       .  A
C2145      O2151   1.320       .  A
C2146      C2147   1.404       .  A
C2146      H2157   1.082       .  S
C2147      C2156   1.364       .  A
C2147      C2148   1.380       .  A
C2148      C2149   1.403       .  A
C2148      O2154   1.318       .  A
C2149      C2150   1.402       .  A
C2149      H2158   1.082       .  S
C2150      C2153   1.361       .  A
O2151      C2152   1.331       .  A
C2152      C2153   1.391       .  A
C2153      H2159   1.082       .  S
O2154      C2155   1.331       .  A
C2155      C2156   1.391       .  A
C2156      H2160   1.082       .  S
C2161      C2166   1.380   1_565  A
C2161      C2162   1.406       .  A
C2161      O2167   1.322       .  A
C2162      C2163   1.406       .  A
C2162      H2173   1.082       .  S
C2163      C2172   1.365       .  A
C2163      C2164   1.380   1_565  A
C2164      C2165   1.402       .  A
C2164      O2170   1.319       .  A
C2165      C2166   1.402       .  A
C2165      H2174   1.082       .  S
C2166      C2169   1.360       .  A
O2167      C2168   1.332       .  A
C2168      C2169   1.390   1_565  A
C2169      H2175   1.082       .  S
O2170      C2171   1.330       .  A
C2171      C2172   1.393   1_545  A
C2172      H2176   1.082       .  S
C2177      C2182   1.380       .  A
C2177      C2178   1.403       .  A
C2177      O2183   1.319       .  A
C2178      C2179   1.403       .  A
C2178      H2189   1.082       .  S
C2179      C2188   1.362       .  A
C2179      C2180   1.380       .  A
C2180      C2181   1.404       .  A
C2180      O2186   1.319       .  A
C2181      C2182   1.403       .  A
C2181      H2190   1.082       .  S
C2182      C2185   1.363       .  A
O2183      C2184   1.330       .  A
C2184      C2185   1.391       .  A
C2185      H2191   1.082       .  S
O2186      C2187   1.331       .  A
C2187      C2188   1.391       .  A
C2188      H2192   1.082       .  S
C2193      C2198   1.380       .  A
C2193      C2194   1.409       .  A
C2193      O2199   1.324       .  A
C2194      C2195   1.408       .  A
C2194      H2205   1.082       .  S
C2195      C2204   1.368       .  A
C2195      C2196   1.380       .  A
C2196      C2197   1.400       .  A
C2196      O2202   1.316       .  A
C2197      C2198   1.399       .  A
C2197      H2206   1.082       .  S
C2198      C2201   1.357       .  A
O2199      C2200   1.334       .  A
C2200      C2201   1.389       .  A
C2201      H2207   1.082       .  S
O2202      C2203   1.329       .  A
C2203      C2204   1.395       .  A
C2204      H2208   1.082       .  S
C2209      C2214   1.380       .  A
C2209      C2210   1.408       .  A
C2209      O2215   1.323       .  A
C2210      C2211   1.407       .  A
C2210      H2221   1.082       .  S
C2211      C2220   1.367       .  A
C2211      C2212   1.380       .  A
C2212      C2213   1.401       .  A
C2212      O2218   1.317       .  A
C2213      C2214   1.400       .  A
C2213      H2222   1.082       .  S
C2214      C2217   1.358       .  A
O2215      C2216   1.333       .  A
C2216      C2217   1.389       .  A
C2217      H2223   1.082       .  S
O2218      C2219   1.330       .  A
C2219      C2220   1.394       .  A
C2220      H2224   1.082       .  S
C2225      C2230   1.380       .  A
C2225      C2226   1.402       .  A
C2225      O2231   1.318       .  A
C2226      C2227   1.401       .  A
C2226      H2237   1.082       .  S
C2227      C2236   1.360       .  A
C2227      C2228   1.380       .  A
C2228      C2229   1.404       .  A
C2228      O2234   1.320       .  A
C2229      C2230   1.404       .  A
C2229      H2238   1.082       .  S
C2230      C2233   1.363       .  A
O2231      C2232   1.330       .  A
C2232      C2233   1.392       .  A
C2233      H2239   1.082       .  S
O2234      C2235   1.331       .  A
C2235      C2236   1.391       .  A
C2236      H2240   1.082       .  S
C2241      C2246   1.380       .  A
C2241      C2242   1.406       .  A
C2241      O2247   1.321       .  A
C2242      C2243   1.405       .  A
C2242      H2253   1.082       .  S
C2243      C2252   1.365       .  A
C2243      C2244   1.381       .  A
C2244      C2245   1.399       .  A
C2244      O2250   1.314       .  A
C2245      C2246   1.398       .  A
C2245      H2254   1.082       .  S
C2246      C2249   1.357       .  A
O2247      C2248   1.332       .  A
C2248      C2249   1.389       .  A
C2249      H2255   1.082       .  S
O2250      C2251   1.328       .  A
C2251      C2252   1.393       .  A
C2252      H2256   1.082       .  S
C2257      C2262   1.380   1_655  A
C2257      C2258   1.404       .  A
C2257      O2263   1.321       .  A
C2258      C2259   1.404       .  A
C2258      H2269   1.082       .  S
C2259      C2268   1.362       .  A
C2259      C2260   1.380   1_655  A
C2260      C2261   1.405       .  A
C2260      O2266   1.322       .  A
C2261      C2262   1.405       .  A
C2261      H2270   1.082       .  S
C2262      C2265   1.363       .  A
O2263      C2264   1.331       .  A
C2264      C2265   1.392   1_655  A
C2265      H2271   1.082       .  S
O2266      C2267   1.332       .  A
C2267      C2268   1.392   1_455  A
C2268      H2272   1.082       .  S
C2273      C2278   1.381       .  A
C2273      C2274   1.400       .  A
C2273      O2279   1.316       .  A
C2274      C2275   1.399       .  A
C2274      H2285   1.082       .  S
C2275      C2284   1.357       .  A
C2275      C2276   1.380       .  A
C2276      C2277   1.406       .  A
C2276      O2282   1.321       .  A
C2277      C2278   1.405       .  A
C2277      H2286   1.082       .  S
C2278      C2281   1.365       .  A
O2279      C2280   1.329       .  A
C2280      C2281   1.393       .  A
C2281      H2287   1.082       .  S
O2282      C2283   1.332       .  A
C2283      C2284   1.389       .  A
C2284      H2288   1.082   1_556  S
C2289      C2294   1.380       .  A
C2289      C2290   1.407       .  A
C2289      O2295   1.323       .  A
C2290      C2291   1.407       .  A
C2290      H2301   1.082       .  S
C2291      C2300   1.365       .  A
C2291      C2292   1.380       .  A
C2292      C2293   1.404       .  A
C2292      O2298   1.320       .  A
C2293      C2294   1.403       .  A
C2293      H2302   1.082       .  S
C2294      C2297   1.361       .  A
O2295      C2296   1.333       .  A
C2296      C2297   1.391       .  A
C2297      H2303   1.082       .  S
O2298      C2299   1.331       .  A
C2299      C2300   1.393       .  A
C2300      H2304   1.082       .  S
